                                  MODFLOW-NWT-SWR1 
      U.S. GEOLOGICAL SURVEY MODULAR FINITE-DIFFERENCE GROUNDWATER-FLOW MODEL
                            VERSION 1.2.0 03/01/2020
                    BASED ON MODFLOW-2005 VERSION 1.12.00 02/03/2017

 LIST FILE: ./output/low/Agwater1_low.lst
                         UNIT    9

 OPENING ./input/Agwater1.ba6
 FILE TYPE:BAS6   UNIT   75   STATUS:OLD    
 FORMAT:FORMATTED              ACCESS:SEQUENTIAL          

 OPENING ./input/Agwater1.upw
 FILE TYPE:UPW   UNIT    7   STATUS:OLD    
 FORMAT:FORMATTED              ACCESS:SEQUENTIAL          

 OPENING ./input/Agwater1.dis
 FILE TYPE:DIS   UNIT    8   STATUS:OLD    
 FORMAT:FORMATTED              ACCESS:SEQUENTIAL          

 OPENING ./input/Agwater1.nwt
 FILE TYPE:NWT   UNIT   13   STATUS:OLD    
 FORMAT:FORMATTED              ACCESS:SEQUENTIAL          

 OPENING ./input/Agwater1.oc
 FILE TYPE:OC   UNIT   14   STATUS:OLD    
 FORMAT:FORMATTED              ACCESS:SEQUENTIAL          

 OPENING ./input/Agwater1.sfr
 FILE TYPE:SFR   UNIT   15   STATUS:OLD    
 FORMAT:FORMATTED              ACCESS:SEQUENTIAL          

 OPENING ./input/Agwater1.ghb
 FILE TYPE:GHB   UNIT   17   STATUS:OLD    
 FORMAT:FORMATTED              ACCESS:SEQUENTIAL          

 OPENING ./input/Agwater1.uzf
 FILE TYPE:UZF   UNIT   19   STATUS:OLD    
 FORMAT:FORMATTED              ACCESS:SEQUENTIAL          

 OPENING ./input/Agwater1.gag
 FILE TYPE:GAGE   UNIT   32   STATUS:OLD    
 FORMAT:FORMATTED              ACCESS:SEQUENTIAL          

 OPENING ./input/seg1_low.tab
 FILE TYPE:DATA   UNIT   55   STATUS:UNKNOWN
 FORMAT:FORMATTED              ACCESS:SEQUENTIAL          

 OPENING ./input/seg9.tab
 FILE TYPE:DATA   UNIT   56   STATUS:UNKNOWN
 FORMAT:FORMATTED              ACCESS:SEQUENTIAL          

 OPENING ./input/Agwater1.ag
 FILE TYPE:AG   UNIT   57   STATUS:OLD    
 FORMAT:FORMATTED              ACCESS:SEQUENTIAL          

 OPENING ./output/low/Agwater1_low.hed
 FILE TYPE:DATA   UNIT   62   STATUS:UNKNOWN
 FORMAT:FORMATTED              ACCESS:SEQUENTIAL          

 OPENING ./output/low/Agwater1gw_low.ts5
 FILE TYPE:DATA   UNIT  105   STATUS:UNKNOWN
 FORMAT:FORMATTED              ACCESS:SEQUENTIAL          

 OPENING ./output/low/Agwater1SW_low.ts9
 FILE TYPE:DATA   UNIT  107   STATUS:UNKNOWN
 FORMAT:FORMATTED              ACCESS:SEQUENTIAL          

 OPENING ./output/low/Agwater1SW_ET_low.ts9
 FILE TYPE:DATA   UNIT  108   STATUS:UNKNOWN
 FORMAT:FORMATTED              ACCESS:SEQUENTIAL          

 OPENING ./output/low/Agwater1_low.uzfot
 FILE TYPE:DATA(BINARY)   UNIT   61   STATUS:UNKNOWN
 FORMAT:UNFORMATTED            ACCESS:STREAM              

 OPENING ./output/low/Agwater1cbc_low.unf
 FILE TYPE:DATA(BINARY)   UNIT  102   STATUS:UNKNOWN
 FORMAT:UNFORMATTED            ACCESS:STREAM              

 OPENING ./output/low/Agwater1_low.uzf1
 FILE TYPE:DATA   UNIT   65   STATUS:UNKNOWN
 FORMAT:FORMATTED              ACCESS:SEQUENTIAL          

 OPENING ./output/low/Agwater1_low.uzf2
 FILE TYPE:DATA   UNIT   66   STATUS:UNKNOWN
 FORMAT:FORMATTED              ACCESS:SEQUENTIAL          

 OPENING ./output/low/Agwater1_low.uzf3
 FILE TYPE:DATA   UNIT   67   STATUS:UNKNOWN
 FORMAT:FORMATTED              ACCESS:SEQUENTIAL          

 OPENING ./output/low/Agwater1_low.uzf4
 FILE TYPE:DATA   UNIT   68   STATUS:UNKNOWN
 FORMAT:FORMATTED              ACCESS:SEQUENTIAL          

 OPENING ./output/low/Agwater1_low.flw
 FILE TYPE:DATA   UNIT   81   STATUS:UNKNOWN
 FORMAT:FORMATTED              ACCESS:SEQUENTIAL          

 OPENING ./output/low/Agwater1_low.sg1
 FILE TYPE:DATA   UNIT   83   STATUS:UNKNOWN
 FORMAT:FORMATTED              ACCESS:SEQUENTIAL          

 OPENING ./output/low/Agwater1_low.sg2
 FILE TYPE:DATA   UNIT   84   STATUS:UNKNOWN
 FORMAT:FORMATTED              ACCESS:SEQUENTIAL          

 OPENING ./output/low/Agwater1_low.sg3
 FILE TYPE:DATA   UNIT   85   STATUS:UNKNOWN
 FORMAT:FORMATTED              ACCESS:SEQUENTIAL          

 OPENING ./output/low/Agwater1_low.sg4
 FILE TYPE:DATA   UNIT   86   STATUS:UNKNOWN
 FORMAT:FORMATTED              ACCESS:SEQUENTIAL          

 OPENING ./output/low/Agwater1_low.sg5
 FILE TYPE:DATA   UNIT   87   STATUS:UNKNOWN
 FORMAT:FORMATTED              ACCESS:SEQUENTIAL          

 OPENING ./output/low/Agwater1_low.sg6
 FILE TYPE:DATA   UNIT   88   STATUS:UNKNOWN
 FORMAT:FORMATTED              ACCESS:SEQUENTIAL          

 OPENING ./output/low/Agwater1_low.sg7
 FILE TYPE:DATA   UNIT   89   STATUS:UNKNOWN
 FORMAT:FORMATTED              ACCESS:SEQUENTIAL          

 OPENING ./output/low/Agwater1_low.sg8
 FILE TYPE:DATA   UNIT   90   STATUS:UNKNOWN
 FORMAT:FORMATTED              ACCESS:SEQUENTIAL          

 OPENING ./output/low/Agwater1_low.sg9
 FILE TYPE:DATA   UNIT   91   STATUS:UNKNOWN
 FORMAT:FORMATTED              ACCESS:SEQUENTIAL          

 BAS -- BASIC PACKAGE, VERSION 1.1.4, 4/01/2018 INPUT READ FROM UNIT   75
 
 MODFLOW was compiled using mixed precision
 Precision of REAL variables:           6
 Precision of DOUBLE PRECISION variables:          15

 DISCRETIZATION INPUT DATA READ FROM UNIT    8
 #Test problem 2-- Discretization input
 #Example problem using the UZF1 Package
    1 LAYERS        15 ROWS        10 COLUMNS
   49 STRESS PERIOD(S) IN SIMULATION
 MODEL TIME UNIT IS SECONDS
 MODEL LENGTH UNIT IS FEET
  Confining bed flag for each layer:
   0

                     DELR =   5000.00    

                     DELC =   5000.00    



           TOP ELEVATION OF LAYER 1
 READING ON UNIT    8 WITH FORMAT: (10F7.0)            

            1           2           3           4           5           6           7           8           9          10
 ........................................................................................................................
   1    1105.       1105.       0.000       0.000       0.000       0.000       0.000       0.000       0.000       0.000    
   2    1105.       1095.       1105.       0.000       0.000       1100.       1100.       1110.       0.000       0.000    
   3    0.000       1100.       1085.       1080.       1078.       1076.       1073.       1090.       0.000       0.000    
   4    1110.       1100.       1090.       1085.       1076.       1080.       1080.       1070.       1100.       0.000    
   5    1110.       1100.       1085.       1080.       1078.       1074.       1077.       1066.       1075.       1080.    
   6    1105.       1095.       1080.       1077.       1073.       1069.       1070.       1063.       1085.       1095.    
   7    1105.       1090.       1075.       1072.       1070.       1065.       1065.       1069.       1090.       0.000    
   8    0.000       1080.       1070.       1068.       1063.       1060.       1063.       1067.       1090.       0.000    
   9    0.000       1075.       1065.       1062.       1058.       1052.       1055.       1065.       1090.       0.000    
  10    0.000       1070.       1060.       1055.       1046.       1046.       1044.       1060.       1088.       1100.    
  11    0.000       1055.       1050.       1045.       1041.       1042.       1040.       1050.       1075.       0.000    
  12    1027.       1028.       1028.       1032.       1032.       1033.       1032.       1040.       1060.       0.000    
  13    997.0       1004.       1008.       1014.       1020.       1027.       1032.       1038.       1050.       0.000    
  14    0.000       1030.       1040.       1045.       1050.       1050.       1050.       1050.       1044.       0.000    
  15    0.000       0.000       1080.       1080.       1080.       1080.       0.000       0.000       0.000       0.000    



             MODEL LAYER BOTTOM EL. FOR LAYER   1
 READING ON UNIT    8 WITH FORMAT: (10F7.0)            

            1           2           3           4           5           6           7           8           9          10
 ........................................................................................................................
   1    1000.       1000.       0.000       0.000       0.000       0.000       0.000       0.000       0.000       0.000    
   2    1000.       900.0       900.0       0.000       0.000       950.0       950.0       950.0       0.000       0.000    
   3    0.000       850.0       670.0       680.0       680.0       770.0       770.0       890.0       0.000       0.000    
   4    925.0       850.0       650.0       650.0       650.0       680.0       740.0       850.0       950.0       0.000    
   5    925.0       800.0       650.0       600.0       600.0       600.0       650.0       720.0       850.0       950.0    
   6    925.0       800.0       650.0       600.0       550.0       600.0       650.0       720.0       850.0       970.0    
   7    925.0       800.0       650.0       600.0       550.0       600.0       650.0       720.0       950.0       0.000    
   8    0.000       850.0       700.0       650.0       570.0       600.0       700.0       850.0       950.0       0.000    
   9    0.000       850.0       700.0       650.0       540.0       580.0       700.0       850.0       950.0       0.000    
  10    0.000       850.0       700.0       630.0       530.0       580.0       650.0       800.0       900.0       950.0    
  11    0.000       850.0       700.0       620.0       580.0       620.0       700.0       800.0       900.0       0.000    
  12    900.0       830.0       710.0       640.0       600.0       650.0       700.0       800.0       900.0       0.000    
  13    900.0       810.0       750.0       700.0       650.0       700.0       750.0       800.0       900.0       0.000    
  14    0.000       950.0       850.0       850.0       850.0       850.0       850.0       850.0       850.0       0.000    
  15    0.000       0.000       950.0       950.0       950.0       950.0       0.000       0.000       0.000       0.000    


 STRESS PERIOD     LENGTH       TIME STEPS     MULTIPLIER FOR DELT    SS FLAG
 ----------------------------------------------------------------------------
        1         86400.00          1                    1.000         SS
        2         2630000.         30                    1.000         TR
        3         2630000.         30                    1.000         TR
        4         2630000.         30                    1.000         TR
        5         2630000.         30                    1.000         TR
        6         2630000.         30                    1.000         TR
        7         2630000.         30                    1.000         TR
        8         2630000.         30                    1.000         TR
        9         2630000.         30                    1.000         TR
       10         2630000.         30                    1.000         TR
       11         2630000.         30                    1.000         TR
       12         2630000.         30                    1.000         TR
       13         2630000.         30                    1.000         TR
       14         2630000.         30                    1.000         TR
       15         2630000.         30                    1.000         TR
       16         2630000.         30                    1.000         TR
       17         2630000.         30                    1.000         TR
       18         2630000.         30                    1.000         TR
       19         2630000.         30                    1.000         TR
       20         2630000.         30                    1.000         TR
       21         2630000.         30                    1.000         TR
       22         2630000.         30                    1.000         TR
       23         2630000.         30                    1.000         TR
       24         2630000.         30                    1.000         TR
       25         2630000.         30                    1.000         TR
       26         2630000.         30                    1.000         TR
       27         2630000.         30                    1.000         TR
       28         2630000.         30                    1.000         TR
       29         2630000.         30                    1.000         TR
       30         2630000.         30                    1.000         TR
       31         2630000.         30                    1.000         TR
       32         2630000.         30                    1.000         TR
       33         2630000.         30                    1.000         TR
       34         2630000.         30                    1.000         TR
       35         2630000.         30                    1.000         TR
       36         2630000.         30                    1.000         TR
       37         2630000.         30                    1.000         TR
       38         2630000.         30                    1.000         TR
       39         2630000.         30                    1.000         TR
       40         2630000.         30                    1.000         TR
       41         2630000.         30                    1.000         TR
       42         2630000.         30                    1.000         TR
       43         2630000.         30                    1.000         TR
       44         2630000.         30                    1.000         TR
       45         2630000.         30                    1.000         TR
       46         2630000.         30                    1.000         TR
       47         2630000.         30                    1.000         TR
       48         2630000.         30                    1.000         TR
       49         2630000.         30                    1.000         TR

 COMBINED STEADY-STATE AND TRANSIENT SIMULATION



 
 #Test Simulation 2-- Example problem using the UZF1 Package                     
 #Modified from example Problem 1 of SFR1 documentation report                   
 THE FREE FORMAT OPTION HAS BEEN SELECTED



                     BOUNDARY ARRAY FOR LAYER   1
 READING ON UNIT   75 WITH FORMAT: (20I4)              

                1           2           3           4           5           6           7           8           9          10
 ............................................................................................................................
   1            1           1           0           0           0           0           0           0           0           0
   2            1           1           1           0           0           1           1           1           0           0
   3            0           1           1           1           1           1           1           1           0           0
   4            1           1           1           1           1           1           1           1           1           0
   5            1           1           1           1           1           1           1           1           1           1
   6            1           1           1           1           1           1           1           1           1           1
   7            1           1           1           1           1           1           1           1           1           0
   8            0           1           1           1           1           1           1           1           1           0
   9            0           1           1           1           1           1           1           1           1           0
  10            0           1           1           1           1           1           1           1           1           1
  11            0           1           1           1           1           1           1           1           1           0
  12            1           1           1           1           1           1           1           1           1           0
  13            1           1           1           1           1           1           1           1           1           0
  14            0           1           1           1           1           1           1           1           1           0
  15            0           0           1           1           1           1           0           0           0           0

 AQUIFER HEAD WILL BE SET TO   6999.0     AT ALL NO-FLOW NODES (IBOUND=0).



                       INITIAL HEAD FOR LAYER   1
 READING ON UNIT   75 WITH FORMAT: (10F8.0)            

            1           2           3           4           5           6           7           8           9          10
 ........................................................................................................................
   1    1093.       1089.       6999.       6999.       6999.       6999.       6999.       6999.       6999.       6999.    
   2    1090.       1087.       1081.       6999.       6999.       1072.       1071.       1071.       6999.       6999.    
   3    6999.       1079.       1078.       1074.       1072.       1071.       1069.       1068.       6999.       6999.    
   4    1069.       1071.       1070.       1067.       1065.       1064.       1064.       1066.       1066.       6999.    
   5    1065.       1064.       1063.       1062.       1061.       1061.       1060.       1062.       1066.       1068.    
   6    1060.       1058.       1057.       1056.       1056.       1057.       1057.       1059.       1062.       1066.    
   7    1056.       1053.       1052.       1051.       1051.       1052.       1053.       1055.       1056.       6999.    
   8    6999.       1046.       1046.       1046.       1046.       1046.       1048.       1050.       1050.       6999.    
   9    6999.       1039.       1039.       1039.       1040.       1041.       1042.       1043.       1044.       6999.    
  10    6999.       1031.       1032.       1033.       1034.       1035.       1037.       1038.       1039.       1042.    
  11    6999.       1021.       1023.       1027.       1029.       1030.       1032.       1034.       1036.       6999.    
  12    1001.       1009.       1015.       1020.       1023.       1026.       1029.       1030.       1034.       6999.    
  13    994.5      1000.0       1007.       1013.       1019.       1024.       1029.       1034.       1036.       6999.    
  14    6999.       1004.       1009.       1014.       1019.       1024.       1029.       1035.       1039.       6999.    
  15    6999.       6999.       1012.       1015.       1019.       1022.       6999.       6999.       6999.       6999.    

 OUTPUT CONTROL IS SPECIFIED ONLY AT TIME STEPS FOR WHICH OUTPUT IS DESIRED
 HEADS WILL BE SAVED WITH FORMAT: (10F10.3)           
 SAVED HEADS WILL BE LABELED
 COMPACT CELL-BY-CELL BUDGET FILES WILL BE WRITTEN
 HEAD PRINT FORMAT CODE IS   4    DRAWDOWN PRINT FORMAT CODE IS   0
 HEADS WILL BE SAVED ON UNIT   62    DRAWDOWNS WILL BE SAVED ON UNIT    0
 # NWT Input File
 # Test Problem 3 for MODFLOW-NWT
 #HEADTOL  FLUXTOL MAXITEROUT THICKFACT LINMETH IPRNWT IBOTAV OPTIONS DBDREDUCE DBDINCREASE DBDGAMMA MOMFACT BACKFLAG MAXBACKITER BACKTOL BACKREDUCE

 NWT1 -- Newton Solver, VERSION 1.1.4, 4/01/2018
         INPUT READ FROM UNIT 13

 SPECIFIED OPTION:
 SOLVER INPUT VALUES ARE SPECIFIED BY USER
 ***XMD linear solver will be used***
 
   CONVERGENCE CRITERION OF   0.100000E-03 FOR HEAD SOLUTION
   AND A TOLERANCE OF   0.100000E+01 FOR FLOW SOLUTION AND 
   A MAXIMUM OF   500 OUTER ITERATIONS. 


   D-B-D REDUCTION FACTOR OF    0.970000E+00 AND 
   A D-B-D INCREASE FACTOR OF    0.100000E-04 AND 
   A D-B-D RELAXATION OF    0.000000E+00 AND 
   A MOMENTUM FACTOR OF    0.100000E+00 .


 ***BACKTRACKING IS INACTIVE***
 XMD -- LINEAR SOLUTION BY XMD PACKAGE VERSION 1.30
     BY MOTOMU IBARAKI, OHIO STATE UNIVERSITY, COLOMBUS, OH
                 INPUT READ FROM UNIT 13
 ACCELERATION METHOD                    (IACL) =         1
 NODE ORDERING FLAG                   (NORDER) =         0
 LEVEL OF FILL                         (LEVEL) =         7
 MAXIMUM NUMBER OF ORTHOGONALIZATIONS  (NORTH) =         7
 INDEX FOR USING REDUCED SYSTEM      (IREDSYS) =         1
 RESID. REDUCTION CONVERGE CRITERION  (RRCTOL) =  0.000000E+00
 INDEX FOR USING DROP TOLERANCE     (IDROPTOL) =         1
 DROP TOLERANCE VALUE                  (EPSRN) =  0.500000E-02
 CONVERGENCE CRITERIA OF           (HCLOSEXMD) =  0.100000E-03
 MAX. NUMBER OF LINEAR ITERATIONS  (MXITERXMD) =        50


 UPW1 -- UPSTREAM WEIGHTING FLOW PACKAGE, VERSION 1.1.4, 4/01/2018
         INPUT READ FROM UNIT  7

 #Layer-Property Flow Package input for test simulation 2
 CELL-BY-CELL FLOWS WILL BE SAVED ON UNIT  102
 No named parameters

   LAYER FLAGS:
 LAYER       LAYTYP          LAYAVG    CHANI           LAYVKA           LAYWET
 ---------------------------------------------------------------------------
    1             1             0     1.000E+00             0             0

   INTERPRETATION OF LAYER FLAGS:
                        INTERBLOCK     HORIZONTAL    DATA IN
         LAYER TYPE   TRANSMISSIVITY   ANISOTROPY   ARRAY VKA   WETTABILITY
 LAYER   (LAYTYP)        (LAYAVG)      (CHANI)     (LAYVKA)       (LAYWET)
 ---------------------------------------------------------------------------
    1   CONVERTIBLE      HARMONIC     1.000E+00    VERTICAL K  NON-WETTABLE



              HYD. COND. ALONG ROWS FOR LAYER   1
 READING ON UNIT    7 WITH FORMAT: (10F5.0)            

            1           2           3           4           5           6           7           8           9          10
 ........................................................................................................................
   1   2.0000E-03  2.0000E-03   0.000       0.000       0.000       0.000       0.000       0.000       0.000       0.000    
   2   4.0000E-04  2.0000E-03  2.0000E-03   0.000       0.000      4.0000E-04  4.0000E-04  4.0000E-04   0.000       0.000    
   3    0.000      4.0000E-04  2.0000E-03  2.0000E-03  4.0000E-04  4.0000E-04  4.0000E-04  4.0000E-04   0.000       0.000    
   4   4.0000E-04  4.0000E-04  4.0000E-04  2.0000E-03  2.0000E-03  2.0000E-03  4.0000E-04  4.0000E-04  4.0000E-04   0.000    
   5   4.0000E-04  4.0000E-04  4.0000E-04  2.0000E-03  2.0000E-03  2.0000E-03  2.0000E-03  2.0000E-03  2.0000E-03  2.0000E-03
   6   4.0000E-04  4.0000E-04  4.0000E-04  2.0000E-03  2.0000E-03  2.0000E-03  2.0000E-03  2.0000E-03  4.0000E-04  4.0000E-04
   7   4.0000E-04  4.0000E-04  4.0000E-04  2.0000E-03  2.0000E-03  2.0000E-03  2.0000E-03  2.0000E-03  4.0000E-04   0.000    
   8    0.000      4.0000E-04  4.0000E-04  2.0000E-03  2.0000E-03  2.0000E-03  2.0000E-03  4.0000E-04  4.0000E-04   0.000    
   9    0.000      4.0000E-04  4.0000E-04  2.0000E-03  2.0000E-03  2.0000E-03  2.0000E-03  4.0000E-04  4.0000E-04   0.000    
  10    0.000      4.0000E-04  4.0000E-04  2.0000E-03  2.0000E-03  2.0000E-03  2.0000E-03  4.0000E-04  4.0000E-04  4.0000E-04
  11    0.000      4.0000E-04  4.0000E-04  2.0000E-03  2.0000E-03  2.0000E-03  2.0000E-03  4.0000E-04  4.0000E-04   0.000    
  12   4.0000E-04  4.0000E-04  2.0000E-03  2.0000E-03  2.0000E-03  2.0000E-03  2.0000E-03  4.0000E-04  4.0000E-04   0.000    
  13   2.0000E-03  2.0000E-03  2.0000E-03  2.0000E-03  2.0000E-03  2.0000E-03  2.0000E-03  2.0000E-03  2.0000E-03   0.000    
  14    0.000      4.0000E-04  4.0000E-04  4.0000E-04  4.0000E-04  4.0000E-04  4.0000E-04  4.0000E-04  2.0000E-03   0.000    
  15    0.000       0.000      4.0000E-04  4.0000E-04  4.0000E-04  4.0000E-04   0.000       0.000       0.000       0.000    

      VERTICAL HYD. COND. =  1.000000E-06 FOR LAYER   1

         SPECIFIC STORAGE =  1.000000E-06 FOR LAYER   1



                     SPECIFIC YIELD FOR LAYER   1
 READING ON UNIT    7 WITH FORMAT: (10F5.0)            

            1           2           3           4           5           6           7           8           9          10
 ........................................................................................................................
   1   0.2000      0.2000       0.000       0.000       0.000       0.000       0.000       0.000       0.000       0.000    
   2   0.1000      0.2000      0.2000       0.000       0.000      0.1000      0.1000      0.1000       0.000       0.000    
   3    0.000      0.1000      0.2000      0.2000      0.1000      0.1000      0.1000      0.1000       0.000       0.000    
   4   0.1000      0.1000      0.1000      0.2000      0.2000      0.2000      0.1000      0.1000      0.1000       0.000    
   5   0.1000      0.1000      0.1000      0.2000      0.2000      0.2000      0.2000      0.2000      0.2000      0.2000    
   6   0.1000      0.1000      0.1000      0.2000      0.2000      0.2000      0.2000      0.2000      0.1000      0.1000    
   7   0.1000      0.1000      0.1000      0.2000      0.2000      0.2000      0.2000      0.2000      0.1000       0.000    
   8    0.000      0.1000      0.1000      0.2000      0.2000      0.2000      0.2000      0.1000      0.1000       0.000    
   9    0.000      0.1000      0.1000      0.2000      0.2000      0.2000      0.2000      0.1000      0.1000       0.000    
  10    0.000      0.1000      0.1000      0.2000      0.2000      0.2000      0.2000      0.1000      0.1000      0.1000    
  11    0.000      0.1000      0.1000      0.2000      0.2000      0.2000      0.2000      0.1000      0.1000       0.000    
  12   0.1000      0.1000      0.2000      0.2000      0.2000      0.2000      0.2000      0.1000      0.1000       0.000    
  13   0.2000      0.2000      0.2000      0.2000      0.2000      0.2000      0.2000      0.2000      0.2000       0.000    
  14    0.000      0.1000      0.1000      0.1000      0.1000      0.1000      0.1000      0.1000      0.2000       0.000    
  15    0.000       0.000      0.1000      0.1000      0.1000      0.1000       0.000       0.000       0.000       0.000    

 GHB -- GENERAL-HEAD BOUNDARY PACKAGE, VERSION 7, 5/2/2005
         INPUT READ FROM UNIT   17
 No named parameters
 MAXIMUM OF      2 ACTIVE GHB CELLS AT ONE TIME
 CELL-BY-CELL FLOWS WILL BE PRINTED WHEN ICBCFL NOT 0


     0 GHB parameters

 SFR7 -- STREAMFLOW ROUTING PACKAGE, VERSION 1.0.5, 2012-04-05
         INPUT READ FROM UNIT  15
 #SFR2 Package input for Testing supplimental pumping and irrigation
 No named parameters

 PROCESSING SFR2 OPTIONS
 
          2 Specified inflow files will be read with a maximum of       1446 row entries per file
 
Stream loss will be calculated as a factor of the streambed hydraulic conductivity. Multiplication factor is equal to     0.1000000015E+00

 END PROCESSING SFR2 OPTIONS
 


 NUMBER OF STREAM REACHES IS   38

 NUMBER OF STREAM SEGMENTS IS    9

 NUMBER OF STREAM PARAMETERS IS    0

 NUMBER OF STREAM SEGMENTS DEFINED USING PARAMETERS IS              0

 MAXIMUM ERROR FOR STREAM LEAKAGE RATES IS  1.00E-06

 CONSTANT FOR MANNINGS EQUATION IS  1.4860E+00



 STREAM OUTPUT WILL BE WRITTEN TO FILE ON UNIT   81


   STREAM NETWORK DESCRIPTION: 

   LAYER    ROW    COL   SEGMENT   REACH     LENGTH
                          NUMBER   NUMBER    IN CELL        
   --------------------------------------------------
      1      1      1       1        1    4.5000E+03
      1      2      2       1        2    7.0000E+03
      1      3      3       1        3    6.0000E+03
      1      3      4       1        4    5.5500E+03
      1      4      5       2        1    6.5000E+03
      1      5      6       2        2    5.0000E+03
      1      6      6       2        3    5.0000E+03
      1      7      6       2        4    5.0000E+03
      1      8      6       2        5    5.0000E+03
      1      3      5       3        1    5.0000E+03
      1      3      6       3        2    5.0000E+03
      1      3      7       3        3    4.5000E+03
      1      4      8       3        4    6.0000E+03
      1      5      8       3        5    5.0000E+03
      1      6      8       3        6    2.0000E+03
      1      5     10       4        1    2.5000E+03
      1      5      9       4        2    5.0000E+03
      1      6      8       4        3    3.5000E+03
      1      6      8       5        1    4.0000E+03
      1      7      7       5        2    5.0000E+03
      1      8      7       5        3    3.5000E+03
      1      8      6       5        4    2.5000E+03
      1      9      6       6        1    5.0000E+03
      1     10      7       6        2    5.0000E+03
      1     11      7       6        3    5.0000E+03
      1     12      7       6        4    5.0000E+03
      1     13      7       6        5    2.0000E+03
      1     14      9       7        1    5.0000E+03
      1     13      8       7        2    5.5000E+03
      1     13      7       7        3    5.0000E+03
      1     13      6       8        1    5.0000E+03
      1     13      5       8        2    5.0000E+03
      1     13      4       8        3    5.0000E+03
      1     13      3       8        4    5.0000E+03
      1     13      2       8        5    5.0000E+03
      1     13      1       8        6    3.0000E+03
      1      8      6       9        1    3.0000E+03
      1      8      5       9        2    3.0000E+03




 UZF1 -- UNSATURATED FLOW PACKAGE, VERSION 1.5, 09/10/2019
         INPUT READ FROM UNIT 19
 #UZF Package input for test simulation 2
 No named parameters

 PROCESSING UZF OPTIONS
 
 
 INITIAL WATER CONTENT (THTI) WILL BE 
READ FOR THE FIRST SS OR TR STRESS PERIOD
 
 
 RESIDUAL WATER CONTENT (THTR) WILL BE 
READ AND USED FOR THE FIRST TRANSIENT STRESS 
PERIOD
 
 
AIR ENTRY PRESSURE AND ROOT PRESSURE WILL BE 
SPECIFIED BY USER AND UZ ET WILL BE SIMULATED 
AS PRESSURE-HEAD DEPENDENT
 
 
INFILTRATION WILL BE REJECTED USING 
LAND SURFACE K
 
 
HYDRAULIC CONDUCTIVITY OF LAND SURFACE 
WILL BE READ
 

 END PROCESSING UZF OPTIONS



            AREAL EXTENT OF UZ FLOW
 READING ON UNIT   19 WITH FORMAT: (20I4)              

                1           2           3           4           5           6           7           8           9          10
 ............................................................................................................................
   1            1           1           0           0           0           0           0           0           0           0
   2            1           1           1           0           0           1           1           1           0           0
   3            0           1           1           1           1           1           1           1           0           0
   4            1           1           1           1           1           1           1           1           1           0
   5            1           1           1           1           1           1           1           1           1           1
   6            1           1           1           1           1           1           1           1           1           1
   7            1           1           1           1           1           1           1           1           1           0
   8            0           1           1           1           1           1           1           1           1           0
   9            0           1           1           1           1           1           1           1           1           0
  10            0           1           1           1           1           1           1           1           1           1
  11            0           1           1           1           1           1           1           1           1           0
  12            1           1           1           1           1           1           1           1           1           0
  13            1           1           1           1           1           1           1           1           1           0
  14            0           1           1           1           1           1           1           1           1           0
  15            0           0           1           1           1           1           0           0           0           0
 OPTION 1 -- RECHARGE IN UZF TO TOP LAYER ONLY 



            ROUTING OVERLAND RUNOFF
 READING ON UNIT   19 WITH FORMAT: (20I4)              

                1           2           3           4           5           6           7           8           9          10
 ............................................................................................................................
   1            1           1           0           0           0           0           0           0           0           0
   2            1           1           1           0           0           3           3           3           0           0
   3            0           1           1           1           3           3           3           3           0           0
   4            8           8           2           2           2           2           2           3           3           0
   5            8           8           8           8           2           2           2           3           4           4
   6            8           8           8           8           8           2           2           4           4           4
   7            8           8           8           8           8           2           5           5           5           0
   8            0           8           8           8           8           2           5           5           5           0
   9            0           8           8           8           8           6           6           6           6           0
  10            0           8           8           8           8           6           6           6           6           6
  11            0           8           8           8           8           8           6           6           7           0
  12            8           8           8           8           8           8           6           7           7           0
  13            8           8           8           8           8           8           7           7           7           0
  14            0           8           8           8           8           8           7           7           7           0
  15            0           0           8           8           8           8           0           0           0           0



               SATURATED VERTICAL K
 READING ON UNIT   19 WITH FORMAT: (10F4.0)            

            1           2           3           4           5           6           7           8           9          10
 ........................................................................................................................
   1   4.6000E-05  4.6000E-05   0.000       0.000       0.000       0.000       0.000       0.000       0.000       0.000    
   2   4.6000E-05  4.6000E-05  4.6000E-05   0.000       0.000      4.6000E-05  4.6000E-05  4.6000E-05   0.000       0.000    
   3    0.000      4.6000E-05  4.6000E-05  4.6000E-05  4.6000E-05  4.6000E-05  4.6000E-05  4.6000E-05   0.000       0.000    
   4   4.6000E-05  4.6000E-05  4.6000E-05  4.6000E-05  4.6000E-05  4.6000E-05  4.6000E-05  4.6000E-05  4.6000E-05   0.000    
   5   4.6000E-05  4.6000E-05  4.6000E-05  4.6000E-05  4.6000E-05  4.6000E-05  4.6000E-05  4.6000E-05  4.6000E-05  4.6000E-05
   6   4.6000E-05  4.6000E-05  4.6000E-05  4.6000E-05  4.6000E-05  4.6000E-05  4.6000E-05  4.6000E-05  4.6000E-05  4.6000E-05
   7   4.6000E-05  4.6000E-05  4.6000E-05  4.6000E-05  4.6000E-05  4.6000E-05  4.6000E-05  4.6000E-05  4.6000E-05   0.000    
   8    0.000      4.6000E-05  4.6000E-05  4.6000E-05  4.6000E-05  4.6000E-05  4.6000E-05  4.6000E-05  4.6000E-05   0.000    
   9    0.000      4.6000E-05  4.6000E-05  4.6000E-05  4.6000E-05  4.6000E-05  4.6000E-05  4.6000E-05  4.6000E-05   0.000    
  10    0.000      4.6000E-05  4.6000E-05  4.6000E-05  4.6000E-05  4.6000E-05  4.6000E-05  4.6000E-05  4.6000E-05  4.6000E-05
  11    0.000      4.6000E-05  4.6000E-05  4.6000E-05  4.6000E-05  4.6000E-05  4.6000E-05  4.6000E-05  4.6000E-05   0.000    
  12   4.6000E-05  4.6000E-05  4.6000E-05  4.6000E-05  4.6000E-05  4.6000E-05  4.6000E-05  4.6000E-05  4.6000E-05   0.000    
  13   4.6000E-05  4.6000E-05  4.6000E-05  4.6000E-05  4.6000E-05  4.6000E-05  4.6000E-05  4.6000E-05  4.6000E-05   0.000    
  14    0.000      4.6000E-05  4.6000E-05  4.6000E-05  4.6000E-05  4.6000E-05  4.6000E-05  4.6000E-05  4.6000E-05   0.000    
  15    0.000       0.000      4.6000E-05  4.6000E-05  4.6000E-05  4.6000E-05   0.000       0.000       0.000       0.000    



            LAND SURFACE VERTICAL K
 READING ON UNIT   19 WITH FORMAT: (10F4.0)            

            1           2           3           4           5           6           7           8           9          10
 ........................................................................................................................
   1   1.0000E-05  1.0000E-05   0.000       0.000       0.000       0.000       0.000       0.000       0.000       0.000    
   2   1.0000E-05  1.0000E-05  1.0000E-05   0.000       0.000      1.0000E-05  1.0000E-05  1.0000E-05   0.000       0.000    
   3    0.000      1.0000E-05  1.0000E-05  1.0000E-05  1.0000E-05  1.0000E-05  1.0000E-05  1.0000E-05   0.000       0.000    
   4   1.0000E-05  1.0000E-05  1.0000E-05  1.0000E-05  1.0000E-05  1.0000E-05  1.0000E-05  1.0000E-05  1.0000E-05   0.000    
   5   1.0000E-05  1.0000E-05  1.0000E-05  1.0000E-05  1.0000E-05  1.0000E-05  1.0000E-05  1.0000E-05  1.0000E-05  1.0000E-05
   6   1.0000E-05  1.0000E-05  1.0000E-05  1.0000E-05  1.0000E-05  1.0000E-05  1.0000E-05  1.0000E-05  1.0000E-05  1.0000E-05
   7   1.0000E-05  1.0000E-05  1.0000E-05  1.0000E-05  1.0000E-05  1.0000E-05  1.0000E-05  1.0000E-05  1.0000E-05   0.000    
   8    0.000      1.0000E-05  1.0000E-05  1.0000E-05  1.0000E-05  1.0000E-05  1.0000E-05  1.0000E-05  1.0000E-05   0.000    
   9    0.000      1.0000E-05  1.0000E-05  1.0000E-05  1.0000E-05  1.0000E-05  1.0000E-05  1.0000E-05  1.0000E-05   0.000    
  10    0.000      1.0000E-05  1.0000E-05  1.0000E-05  1.0000E-05  1.0000E-05  1.0000E-05  1.0000E-05  1.0000E-05  1.0000E-05
  11    0.000      1.0000E-05  1.0000E-05  1.0000E-05  1.0000E-05  1.0000E-05  1.0000E-05  1.0000E-05  1.0000E-05   0.000    
  12   1.0000E-05  1.0000E-05  1.0000E-05  1.0000E-05  1.0000E-05  1.0000E-05  1.0000E-05  1.0000E-05  1.0000E-05   0.000    
  13   1.0000E-05  1.0000E-05  1.0000E-05  1.0000E-05  1.0000E-05  1.0000E-05  1.0000E-05  1.0000E-05  1.0000E-05   0.000    
  14    0.000      1.0000E-05  1.0000E-05  1.0000E-05  1.0000E-05  1.0000E-05  1.0000E-05  1.0000E-05  1.0000E-05   0.000    
  15    0.000       0.000      1.0000E-05  1.0000E-05  1.0000E-05  1.0000E-05   0.000       0.000       0.000       0.000    

     BROOKS-COREY EPSILON =   7.50000    

  SATURATED WATER CONTENT =  0.380000    

   RESIDUAL WATER CONTENT =  0.200000    

    INITIAL WATER CONTENT =  0.200000    

UNSATURATED FLOW RESULTS WILL BE PRINTED TO SEPARATE FILES FOR SELECTED MODEL CELLS, AND TIME STEPS AS DEFINED BY OUTPUT CONTROL PACKAGE 

SELECTED MODEL CELLS ARE: 
 ROW NUMBER  COLUMN NUMBER  FORTRAN UNIT NUMBER  OUTPUT OPTION


       6             4                 65                 1
       6             5                 66                 2
       8             4                 67                 3
       0             0                 68                 4



   9 GAGING STATIONS WERE SPECIFIED.
     (Lakes are identified by a negative value of the Lake Number)
     RECORDS WILL BE WRITTEN TO SEPARATE OUTPUT FILES REPRESENTED BY FOLLOWING UNIT NUMBERS:

 Stream Gages:
  GAGE #   SEGMENT   REACH   UNIT   OUTTYPE
       1       1       4      83       1
       2       2       5      84       1
       3       3       5      85       1
       4       4       3      86       1
       5       5       4      87       4
       6       6       5      88       4
       7       7       3      89       4
       8       8       6      90       4
       9       9       1      91       5





 AG -- AG PACKAGE FOR NWT VERSION 1.2.0,  3/03/2020 INPUT READ FROM UNIT   57
 # AG options

 PROCESSING AG OPTIONS
 
 AGRICULTURAL DEMANDS WILL BE CALCULATED USING ET DEFICIT
 
 
 OPTION TO APPLY SURFACE WATER AS IRRIGATION IS ACTIVE. DIVERTED SURFACE WATER WILL BE APPLIED TO          1 CELLS/RHUS.
 
 
 OPTION TO PUMP SUPPLEMENTARY WATER FOR SURFACE DIVERSION SHORTFALL IS ACTIVATED.  A TOTAL OF             6 SUPPLEMENTAL WELLS ARE ACTIVE
 
 
 OPTION TO APPLY PUMPED WATER AS IRRIGATION IS ACTIVE. PUMPED IRRIGATION WATER WILL BE APPLIED TO          6 CELLS/RHUS.
 
 
 THE MAXIMUM NUMBER OF WELLS FOR SUPPLEMENTING DIVERSIONS OR APPLYING IRRIGATION IS          6 WELLS.
 
 
  UNFORMATTED CELL BY CELL RATES FOR SUP AND IRR WELLS WILL BE SAVED TO FILE UNIT NUMBER         -2
 
 
  UNFORMATTED CELL BY CELL RATES FOR SUP AND IRR WELLS WILL BE SAVED TO FILE UNIT NUMBER         -2
 
 
  UNFORMATTED CELL BY CELL RATES FOR SUP AND IRR WELLS WILL BE SAVED TO FILE UNIT NUMBER         -2
 
 
  UNFORMATTED CELL BY CELL RATES FOR SUP AND IRR WELLS WILL BE SAVED TO FILE UNIT NUMBER         -2
 
 
  GROUND WATER IRRIGATION, POTENTIAL AND ACTUAL ET WILL BE SAVED TO TIMES SERIES OUTPUT FILES.
 
 
  SURFACE WATER IRRIGATION, POTENTIAL AND ACTUAL ET WILL BE SAVED TO TIMES SERIES OUTPUT FILES.
 
 
  SURFACE WATER IRRIGATION, POTENTIAL AND ACTUAL ET WILL BE SAVED TO TIMES SERIES OUTPUT FILES.
 

 END PROCESSING AG OPTIONS
 # AG time series

 PROCESSING TIME SERIES

 FINISHED READING TIME SERIES
 A total number of          1 AG output time series files were activated for SURFACE WATER 
 A total number of          1 AG output time series files were activated for GROUNDWATER 
 A total number of          1 AG output time series files were activated for SURFACE WATER ET
 A total number of          0 AG output time series files were activated for GROUNDWATER ET
 A total number of          0 AG output time series files were activated for POND ET
 A total number of          0 AG output time series files were activated for POND IRRIGATION
 No ponds active in the AG Package
1
                            STRESS PERIOD NO.    1, LENGTH =   86400.00    
                            -----------------------------------------------

                              NUMBER OF TIME STEPS =     1

                               MULTIPLIER FOR DELT =     1.000

                            INITIAL TIME STEP SIZE =   86400.00    

 BOUND. NO. LAYER   ROW   COL     STAGE      CONDUCTANCE         
 ----------------------------------------------------------------
      1      1     13      1       988.0          0.3800E-01
      2      1     14      9       1045.          0.3800E-01

      2 GHB CELLS



 CLASSIFICATION & COUNT OF STREAM SEGMENTS BASED ON SOURCE OF INFLOW:

                HEADWATER     DIVERSION     RECEIVES TRIBUTARY FLOW
                ---------     ---------     -----------------------
                     3              2               4



                    INPUT DATA FOR EACH STREAM SEGMENT
 ---------------------------------------------------------------------------------------------

 SEGMENT    SEG.     INFLOW   OVERLAND   STREAM    STREAM   ICALC  OUTFLOW  DIVERSION PRIORITY
    NO.    LENGTH     RATE     RUNOFF      ET       PPT.    METH.  TO SEG.  FROM SEG.    NO.

      1  2.305E+04 2.500E+01 0.000E+00 0.000E+00 0.000E+00    4        2        0        0
      2  2.650E+04 0.000E+00 0.000E+00 0.000E+00 0.000E+00    1        6        0        0
      3  2.750E+04 2.000E+00 0.000E+00 0.000E+00 0.000E+00    0        5        1        0
      4  1.100E+04 1.000E+01 0.000E+00 0.000E+00 0.000E+00    1        5        0        0
      5  1.500E+04 0.000E+00 0.000E+00 0.000E+00 0.000E+00    3        6        0        0
      6  2.200E+04 0.000E+00 0.000E+00 0.000E+00 0.000E+00    1        8        0        0
      7  1.550E+04 1.500E+02 0.000E+00 0.000E+00 0.000E+00    2        8        0        0
      8  2.800E+04 0.000E+00 0.000E+00 0.000E+00 0.000E+00    2        0        0        0
      9  6.000E+03 0.000E+00 0.000E+00 0.000E+00 0.000E+00    1        0        2        0


         STREAMBED PROPERTIES AND STREAM DIMENSIONS

 SEGMENT     BED HYD. COND.      BED THICKNESS     ELEV.-TOP OF BED     WIDTH OF STREAM     DEPTH OF STREAM    STREAM ROUGHNESS
    No.     UPPER     LOWER     UPPER     LOWER     UPPER     LOWER     UPPER     LOWER     UPPER     LOWER   CHANNEL      BANK

     1  3.000E-05 3.000E-05 3.000E+00 3.000E+00 1.095E+03 1.075E+03
     2  3.000E-05 3.000E-05 3.000E+00 3.000E+00 1.075E+03 1.050E+03 1.200E+01 1.200E+01                     3.000E-02
     3  3.000E-05 3.000E-05 2.000E+00 2.000E+00 1.075E+03 1.060E+03 1.000E+01 6.000E+00 2.000E+00 1.000E+00
     4  3.000E-05 3.000E-05 3.000E+00 3.000E+00 1.080E+03 1.060E+03 1.000E+01 1.000E+01                     3.000E-02
     5  3.000E-05 3.000E-05 3.000E+00 3.000E+00 1.060E+03 1.045E+03
     6  3.000E-05 3.000E-05 3.000E+00 3.000E+00 1.045E+03 1.025E+03 1.200E+01 1.200E+01                     3.000E-02
     7  6.000E-05 6.000E-05 3.000E+00 3.000E+00 1.040E+03 1.025E+03                                         2.500E-02 4.500E-02
     8  6.000E-05 6.000E-05 3.000E+00 3.000E+00 1.025E+03 9.900E+02                                         2.500E-02 4.500E-02
     9  0.000E+00 0.000E+00 3.000E+00 3.000E+00 1.079E+03 1.078E+03 4.000E+00 4.000E+00                     3.000E-02

  EIGHT POINT CROSS-SECTION DATA FOR SEGMENTS WITH ICALC = 2
    X VALUES X VALUES START FROM LEFT SIDE LOOKING DOWNSTREAM

     SEGMENT NO.        X1        X2        X3        X4        X5        X6        X7        X8
            7      0.000E+00 1.000E+01 8.000E+01 1.000E+02 1.500E+02 1.700E+02 2.400E+02 2.500E+02
            8      0.000E+00 1.000E+01 8.000E+01 1.000E+02 1.500E+02 1.700E+02 2.400E+02 2.500E+02

    Z VALUES ARE RELATIVE TO STREAMBED ELEVATION

     SEGMENT NO.          Z1        Z2        Z3        Z4        Z5        Z6        Z7        Z8
            7      2.000E+01 1.300E+01 1.000E+01 2.000E+00 0.000E+00 1.000E+01 1.300E+01 2.000E+01
            8      2.500E+01 1.700E+01 1.300E+01 4.000E+00 0.000E+00 1.000E+01 1.600E+01 2.000E+01

 STREAMFLOW RELATION WITH DEPTH IS BASED ON EQUATION Q = CDPTH*(DEPTH)**FDPTH
 STREAMFLOW RELATION WITH WIDTH IS BASED ON EQUATION Q = AWDTH*(WIDTH)**BWDTH

 SEGMENT NO.      CDPTH     FDPTH    AWDTH     BWDTH

          5 3.000E-01 3.500E-01 3.800E+00 6.000E-01

 STREAMFLOW RELATION WITH DEPTH AND WIDTH IS BASED ON TABULATED VALUES

  SEGMENT NO.   STREAMFLOW       DEPTH       WIDTH

          1     5.0000E-01   2.5000E-01   3.0000E+00
          1     1.0000E+00   4.0000E-01   3.5000E+00
          1     2.0000E+00   5.5000E-01   4.2000E+00
          1     4.0000E+00   7.0000E-01   5.3000E+00
          1     7.0000E+00   8.0000E-01   7.0000E+00
          1     1.0000E+01   9.0000E-01   8.5000E+00
          1     2.0000E+01   1.1000E+00   1.2000E+01
          1     3.0000E+01   1.2500E+00   1.4000E+01
          1     5.0000E+01   1.4000E+00   1.7000E+01
          1     7.5000E+01   1.7000E+00   2.0000E+01
          1     1.0000E+02   1.8000E+00   2.2000E+01



TABULAR INFLOWS WERE READ FOR SEGMENT      1
FROM FILE UNIT NUMBER     55

          TIMES                    INFLOWS
         0.0000000000E+00     0.1875000000E+01
         0.8640000000E+05     0.8250000000E+01
         0.2760000000E+07     0.1575000000E+02
         0.5270000000E+07     0.2887500000E+02
         0.7950000000E+07     0.1050000000E+02
         0.1050000000E+08     0.3712500000E+02
         0.1320000000E+08     0.3112500000E+02
         0.1580000000E+08     0.2812500000E+02
         0.1850000000E+08     0.2287500000E+02
         0.2120000000E+08     0.1762500000E+02
         0.2380000000E+08     0.1312500000E+02
         0.2640000000E+08     0.9750000000E+01
         0.2900000000E+08     0.8625000000E+01
         0.3170000000E+08     0.7125000000E+01
         0.3440000000E+08     0.7875000000E+01
         0.3680000000E+08     0.3675000000E+02
         0.3950000000E+08     0.2812500000E+02
         0.4210000000E+08     0.2362500000E+02
         0.4480000000E+08     0.2175000000E+02
         0.4730000000E+08     0.2025000000E+02
         0.5000000000E+08     0.1387500000E+02
         0.5270000000E+08     0.9375000000E+01
         0.5530000000E+08     0.8250000000E+01
         0.5800000000E+08     0.7875000000E+01
         0.6060000000E+08     0.7500000000E+01
         0.6320000000E+08     0.7125000000E+01
         0.6330000000E+08     0.8250000000E+01
         0.6600000000E+08     0.1575000000E+02
         0.6850000000E+08     0.2887500000E+02
         0.7120000000E+08     0.1050000000E+02
         0.7370000000E+08     0.3712500000E+02
         0.7640000000E+08     0.3112500000E+02
         0.7900000000E+08     0.2812500000E+02
         0.8170000000E+08     0.2287500000E+02
         0.8440000000E+08     0.1762500000E+02
         0.8700000000E+08     0.1312500000E+02
         0.8960000000E+08     0.9750000000E+01
         0.9220000000E+08     0.8625000000E+01
         0.9490000000E+08     0.7125000000E+01
         0.9760000000E+08     0.7875000000E+01
         0.1000000000E+09     0.3675000000E+02
         0.1030000000E+09     0.2812500000E+02
         0.1050000000E+09     0.2362500000E+02
         0.1080000000E+09     0.2175000000E+02
         0.1110000000E+09     0.2025000000E+02
         0.1130000000E+09     0.1387500000E+02
         0.1160000000E+09     0.9375000000E+01
         0.1190000000E+09     0.8250000000E+01
         0.1210000000E+09     0.7875000000E+01
         0.1240000000E+09     0.7500000000E+01
         0.1260000000E+09     0.7125000000E+01
TABULAR INFLOWS WERE READ FOR SEGMENT      9
FROM FILE UNIT NUMBER     56

          TIMES                    INFLOWS
         0.0000000000E+00     0.1000000000E+03
         0.8640000000E+05     0.1000000000E+03
         0.1730000000E+06     0.1000000000E+03
         0.2590000000E+06     0.1000000000E+03
         0.3460000000E+06     0.1000000000E+03
         0.4320000000E+06     0.1000000000E+03
         0.5180000000E+06     0.1000000000E+03
         0.6050000000E+06     0.1000000000E+03
         0.6910000000E+06     0.1000000000E+03
         0.7780000000E+06     0.1000000000E+03
         0.8640000000E+06     0.1000000000E+03
         0.9500000000E+06     0.1000000000E+03
         0.1040000000E+07     0.1000000000E+03
         0.1120000000E+07     0.1000000000E+03
         0.1210000000E+07     0.1000000000E+03
         0.1300000000E+07     0.1000000000E+03
         0.1380000000E+07     0.1000000000E+03
         0.1470000000E+07     0.1000000000E+03
         0.1560000000E+07     0.1000000000E+03
         0.1640000000E+07     0.1000000000E+03
         0.1730000000E+07     0.1000000000E+03
         0.1810000000E+07     0.1000000000E+03
         0.1900000000E+07     0.1000000000E+03
         0.1990000000E+07     0.1000000000E+03
         0.2070000000E+07     0.1000000000E+03
         0.2160000000E+07     0.1000000000E+03
         0.2250000000E+07     0.1000000000E+03
         0.2330000000E+07     0.1000000000E+03
         0.2420000000E+07     0.1000000000E+03
         0.2510000000E+07     0.1000000000E+03
         0.2590000000E+07     0.1000000000E+03
         0.2680000000E+07     0.1000000000E+03
         0.2760000000E+07     0.1000000000E+03
         0.2850000000E+07     0.1000000000E+03
         0.2940000000E+07     0.1000000000E+03
         0.3020000000E+07     0.1000000000E+03
         0.3110000000E+07     0.1000000000E+03
         0.3200000000E+07     0.1000000000E+03
         0.3280000000E+07     0.1000000000E+03
         0.3370000000E+07     0.1000000000E+03
         0.3460000000E+07     0.1000000000E+03
         0.3540000000E+07     0.1000000000E+03
         0.3630000000E+07     0.1000000000E+03
         0.3720000000E+07     0.1000000000E+03
         0.3800000000E+07     0.1000000000E+03
         0.3890000000E+07     0.1000000000E+03
         0.3970000000E+07     0.1000000000E+03
         0.4060000000E+07     0.1000000000E+03
         0.4150000000E+07     0.1000000000E+03
         0.4230000000E+07     0.1000000000E+03
         0.4320000000E+07     0.1000000000E+03
         0.4410000000E+07     0.1000000000E+03
         0.4490000000E+07     0.1000000000E+03
         0.4580000000E+07     0.1000000000E+03
         0.4670000000E+07     0.1000000000E+03
         0.4750000000E+07     0.1000000000E+03
         0.4840000000E+07     0.1000000000E+03
         0.4920000000E+07     0.1000000000E+03
         0.5010000000E+07     0.1000000000E+03
         0.5100000000E+07     0.1000000000E+03
         0.5180000000E+07     0.1000000000E+03
         0.5270000000E+07     0.1000000000E+03
         0.5360000000E+07     0.1000000000E+03
         0.5440000000E+07     0.1000000000E+03
         0.5530000000E+07     0.1000000000E+03
         0.5620000000E+07     0.1000000000E+03
         0.5700000000E+07     0.1000000000E+03
         0.5790000000E+07     0.1000000000E+03
         0.5880000000E+07     0.1000000000E+03
         0.5960000000E+07     0.1000000000E+03
         0.6050000000E+07     0.1000000000E+03
         0.6130000000E+07     0.1000000000E+03
         0.6220000000E+07     0.1000000000E+03
         0.6310000000E+07     0.1000000000E+03
         0.6390000000E+07     0.1000000000E+03
         0.6480000000E+07     0.1000000000E+03
         0.6570000000E+07     0.1000000000E+03
         0.6650000000E+07     0.1000000000E+03
         0.6740000000E+07     0.1000000000E+03
         0.6830000000E+07     0.1000000000E+03
         0.6910000000E+07     0.1000000000E+03
         0.7000000000E+07     0.1000000000E+03
         0.7080000000E+07     0.1000000000E+03
         0.7170000000E+07     0.1000000000E+03
         0.7260000000E+07     0.1000000000E+03
         0.7340000000E+07     0.1000000000E+03
         0.7430000000E+07     0.1000000000E+03
         0.7520000000E+07     0.1000000000E+03
         0.7600000000E+07     0.1000000000E+03
         0.7690000000E+07     0.1000000000E+03
         0.7780000000E+07     0.1000000000E+03
         0.7860000000E+07     0.1000000000E+03
         0.7950000000E+07     0.1000000000E+03
         0.8040000000E+07     0.1000000000E+03
         0.8120000000E+07     0.1000000000E+03
         0.8210000000E+07     0.1000000000E+03
         0.8290000000E+07     0.1000000000E+03
         0.8380000000E+07     0.1000000000E+03
         0.8470000000E+07     0.1000000000E+03
         0.8550000000E+07     0.1000000000E+03
         0.8640000000E+07     0.1000000000E+03
         0.8730000000E+07     0.1000000000E+03
         0.8810000000E+07     0.1000000000E+03
         0.8900000000E+07     0.1000000000E+03
         0.8990000000E+07     0.1000000000E+03
         0.9070000000E+07     0.1000000000E+03
         0.9160000000E+07     0.1000000000E+03
         0.9240000000E+07     0.1000000000E+03
         0.9330000000E+07     0.1000000000E+03
         0.9420000000E+07     0.1000000000E+03
         0.9500000000E+07     0.1000000000E+03
         0.9590000000E+07     0.1000000000E+03
         0.9680000000E+07     0.1000000000E+03
         0.9760000000E+07     0.1000000000E+03
         0.9850000000E+07     0.1000000000E+03
         0.9940000000E+07     0.1000000000E+03
         0.1000000000E+08     0.1000000000E+03
         0.1010000000E+08     0.1000000000E+03
         0.1020000000E+08     0.1000000000E+03
         0.1030000000E+08     0.1000000000E+03
         0.1040000000E+08     0.1000000000E+03
         0.1050000000E+08     0.1000000000E+03
         0.1050000000E+08     0.1000000000E+03
         0.1060000000E+08     0.1000000000E+03
         0.1070000000E+08     0.1000000000E+03
         0.1080000000E+08     0.1000000000E+03
         0.1090000000E+08     0.1000000000E+03
         0.1100000000E+08     0.1000000000E+03
         0.1110000000E+08     0.1000000000E+03
         0.1110000000E+08     0.1000000000E+03
         0.1120000000E+08     0.1000000000E+03
         0.1130000000E+08     0.1000000000E+03
         0.1140000000E+08     0.1000000000E+03
         0.1150000000E+08     0.1000000000E+03
         0.1160000000E+08     0.1000000000E+03
         0.1170000000E+08     0.1000000000E+03
         0.1180000000E+08     0.1000000000E+03
         0.1180000000E+08     0.1000000000E+03
         0.1190000000E+08     0.1000000000E+03
         0.1200000000E+08     0.1000000000E+03
         0.1210000000E+08     0.1000000000E+03
         0.1220000000E+08     0.1000000000E+03
         0.1230000000E+08     0.1000000000E+03
         0.1240000000E+08     0.1000000000E+03
         0.1240000000E+08     0.1000000000E+03
         0.1250000000E+08     0.1000000000E+03
         0.1260000000E+08     0.1000000000E+03
         0.1270000000E+08     0.1000000000E+03
         0.1280000000E+08     0.1000000000E+03
         0.1290000000E+08     0.1000000000E+03
         0.1300000000E+08     0.1000000000E+03
         0.1300000000E+08     0.1000000000E+03
         0.1310000000E+08     0.1000000000E+03
         0.1320000000E+08     0.1000000000E+03
         0.1330000000E+08     0.1000000000E+03
         0.1340000000E+08     0.1000000000E+03
         0.1350000000E+08     0.1000000000E+03
         0.1360000000E+08     0.1000000000E+03
         0.1370000000E+08     0.1000000000E+03
         0.1370000000E+08     0.1000000000E+03
         0.1380000000E+08     0.1000000000E+03
         0.1390000000E+08     0.1000000000E+03
         0.1400000000E+08     0.1000000000E+03
         0.1410000000E+08     0.1000000000E+03
         0.1420000000E+08     0.1000000000E+03
         0.1430000000E+08     0.1000000000E+03
         0.1430000000E+08     0.1000000000E+03
         0.1440000000E+08     0.1000000000E+03
         0.1450000000E+08     0.1000000000E+03
         0.1460000000E+08     0.1000000000E+03
         0.1470000000E+08     0.1000000000E+03
         0.1480000000E+08     0.1000000000E+03
         0.1490000000E+08     0.1000000000E+03
         0.1490000000E+08     0.1000000000E+03
         0.1500000000E+08     0.1000000000E+03
         0.1510000000E+08     0.1000000000E+03
         0.1520000000E+08     0.1000000000E+03
         0.1530000000E+08     0.1000000000E+03
         0.1540000000E+08     0.1000000000E+03
         0.1550000000E+08     0.1000000000E+03
         0.1560000000E+08     0.1000000000E+03
         0.1560000000E+08     0.1000000000E+03
         0.1570000000E+08     0.1000000000E+03
         0.1580000000E+08     0.1000000000E+03
         0.1590000000E+08     0.1000000000E+03
         0.1600000000E+08     0.1000000000E+03
         0.1610000000E+08     0.1000000000E+03
         0.1620000000E+08     0.1000000000E+03
         0.1620000000E+08     0.1000000000E+03
         0.1630000000E+08     0.1000000000E+03
         0.1640000000E+08     0.1000000000E+03
         0.1650000000E+08     0.1000000000E+03
         0.1660000000E+08     0.1000000000E+03
         0.1670000000E+08     0.1000000000E+03
         0.1680000000E+08     0.1000000000E+03
         0.1680000000E+08     0.1000000000E+03
         0.1690000000E+08     0.1000000000E+03
         0.1700000000E+08     0.1000000000E+03
         0.1710000000E+08     0.1000000000E+03
         0.1720000000E+08     0.1000000000E+03
         0.1730000000E+08     0.1000000000E+03
         0.1740000000E+08     0.1000000000E+03
         0.1750000000E+08     0.1000000000E+03
         0.1750000000E+08     0.1000000000E+03
         0.1760000000E+08     0.1000000000E+03
         0.1770000000E+08     0.1000000000E+03
         0.1780000000E+08     0.1000000000E+03
         0.1790000000E+08     0.1000000000E+03
         0.1800000000E+08     0.1000000000E+03
         0.1810000000E+08     0.1000000000E+03
         0.1810000000E+08     0.1000000000E+03
         0.1820000000E+08     0.1000000000E+03
         0.1830000000E+08     0.1000000000E+03
         0.1840000000E+08     0.1000000000E+03
         0.1850000000E+08     0.1000000000E+03
         0.1860000000E+08     0.1000000000E+03
         0.1870000000E+08     0.1000000000E+03
         0.1870000000E+08     0.1000000000E+03
         0.1880000000E+08     0.1000000000E+03
         0.1890000000E+08     0.1000000000E+03
         0.1900000000E+08     0.1000000000E+03
         0.1910000000E+08     0.1000000000E+03
         0.1920000000E+08     0.1000000000E+03
         0.1930000000E+08     0.1000000000E+03
         0.1940000000E+08     0.1000000000E+03
         0.1940000000E+08     0.1000000000E+03
         0.1950000000E+08     0.1000000000E+03
         0.1960000000E+08     0.1000000000E+03
         0.1970000000E+08     0.1000000000E+03
         0.1980000000E+08     0.1000000000E+03
         0.1990000000E+08     0.1000000000E+03
         0.2000000000E+08     0.1000000000E+03
         0.2000000000E+08     0.1000000000E+03
         0.2010000000E+08     0.1000000000E+03
         0.2020000000E+08     0.1000000000E+03
         0.2030000000E+08     0.1000000000E+03
         0.2040000000E+08     0.1000000000E+03
         0.2050000000E+08     0.1000000000E+03
         0.2060000000E+08     0.1000000000E+03
         0.2070000000E+08     0.1000000000E+03
         0.2070000000E+08     0.1000000000E+03
         0.2080000000E+08     0.1000000000E+03
         0.2090000000E+08     0.1000000000E+03
         0.2100000000E+08     0.1000000000E+03
         0.2110000000E+08     0.1000000000E+03
         0.2120000000E+08     0.1000000000E+03
         0.2130000000E+08     0.1000000000E+03
         0.2130000000E+08     0.1000000000E+03
         0.2140000000E+08     0.1000000000E+03
         0.2150000000E+08     0.1000000000E+03
         0.2160000000E+08     0.1000000000E+03
         0.2170000000E+08     0.1000000000E+03
         0.2180000000E+08     0.1000000000E+03
         0.2190000000E+08     0.1000000000E+03
         0.2190000000E+08     0.1000000000E+03
         0.2200000000E+08     0.1000000000E+03
         0.2210000000E+08     0.1000000000E+03
         0.2220000000E+08     0.1000000000E+03
         0.2230000000E+08     0.1000000000E+03
         0.2240000000E+08     0.1000000000E+03
         0.2250000000E+08     0.1000000000E+03
         0.2260000000E+08     0.1000000000E+03
         0.2260000000E+08     0.1000000000E+03
         0.2270000000E+08     0.1000000000E+03
         0.2280000000E+08     0.1000000000E+03
         0.2290000000E+08     0.1000000000E+03
         0.2300000000E+08     0.1000000000E+03
         0.2310000000E+08     0.1000000000E+03
         0.2320000000E+08     0.1000000000E+03
         0.2320000000E+08     0.1000000000E+03
         0.2330000000E+08     0.1000000000E+03
         0.2340000000E+08     0.1000000000E+03
         0.2350000000E+08     0.1000000000E+03
         0.2360000000E+08     0.1000000000E+03
         0.2370000000E+08     0.1000000000E+03
         0.2380000000E+08     0.1000000000E+03
         0.2380000000E+08     0.1000000000E+03
         0.2390000000E+08     0.1000000000E+03
         0.2400000000E+08     0.1000000000E+03
         0.2410000000E+08     0.1000000000E+03
         0.2420000000E+08     0.1000000000E+03
         0.2430000000E+08     0.1000000000E+03
         0.2440000000E+08     0.1000000000E+03
         0.2450000000E+08     0.1000000000E+03
         0.2450000000E+08     0.1000000000E+03
         0.2460000000E+08     0.1000000000E+03
         0.2470000000E+08     0.1000000000E+03
         0.2480000000E+08     0.1000000000E+03
         0.2490000000E+08     0.1000000000E+03
         0.2500000000E+08     0.1000000000E+03
         0.2510000000E+08     0.1000000000E+03
         0.2510000000E+08     0.1000000000E+03
         0.2520000000E+08     0.1000000000E+03
         0.2530000000E+08     0.1000000000E+03
         0.2540000000E+08     0.1000000000E+03
         0.2550000000E+08     0.1000000000E+03
         0.2560000000E+08     0.1000000000E+03
         0.2570000000E+08     0.1000000000E+03
         0.2570000000E+08     0.1000000000E+03
         0.2580000000E+08     0.1000000000E+03
         0.2590000000E+08     0.1000000000E+03
         0.2600000000E+08     0.1000000000E+03
         0.2610000000E+08     0.1000000000E+03
         0.2620000000E+08     0.1000000000E+03
         0.2630000000E+08     0.1000000000E+03
         0.2640000000E+08     0.1000000000E+03
         0.2640000000E+08     0.1000000000E+03
         0.2650000000E+08     0.1000000000E+03
         0.2660000000E+08     0.1000000000E+03
         0.2670000000E+08     0.1000000000E+03
         0.2680000000E+08     0.1000000000E+03
         0.2690000000E+08     0.1000000000E+03
         0.2700000000E+08     0.1000000000E+03
         0.2700000000E+08     0.1000000000E+03
         0.2710000000E+08     0.1000000000E+03
         0.2720000000E+08     0.1000000000E+03
         0.2730000000E+08     0.1000000000E+03
         0.2740000000E+08     0.1000000000E+03
         0.2750000000E+08     0.1000000000E+03
         0.2760000000E+08     0.1000000000E+03
         0.2760000000E+08     0.1000000000E+03
         0.2770000000E+08     0.1000000000E+03
         0.2780000000E+08     0.1000000000E+03
         0.2790000000E+08     0.1000000000E+03
         0.2800000000E+08     0.1000000000E+03
         0.2810000000E+08     0.1000000000E+03
         0.2820000000E+08     0.1000000000E+03
         0.2830000000E+08     0.1000000000E+03
         0.2830000000E+08     0.1000000000E+03
         0.2840000000E+08     0.1000000000E+03
         0.2850000000E+08     0.1000000000E+03
         0.2860000000E+08     0.1000000000E+03
         0.2870000000E+08     0.1000000000E+03
         0.2880000000E+08     0.1000000000E+03
         0.2890000000E+08     0.1000000000E+03
         0.2890000000E+08     0.1000000000E+03
         0.2900000000E+08     0.1000000000E+03
         0.2910000000E+08     0.1000000000E+03
         0.2920000000E+08     0.1000000000E+03
         0.2930000000E+08     0.1000000000E+03
         0.2940000000E+08     0.1000000000E+03
         0.2950000000E+08     0.1000000000E+03
         0.2950000000E+08     0.1000000000E+03
         0.2960000000E+08     0.1000000000E+03
         0.2970000000E+08     0.1000000000E+03
         0.2980000000E+08     0.1000000000E+03
         0.2990000000E+08     0.1000000000E+03
         0.3000000000E+08     0.1000000000E+03
         0.3010000000E+08     0.1000000000E+03
         0.3020000000E+08     0.1000000000E+03
         0.3020000000E+08     0.1000000000E+03
         0.3030000000E+08     0.1000000000E+03
         0.3040000000E+08     0.1000000000E+03
         0.3050000000E+08     0.1000000000E+03
         0.3060000000E+08     0.1000000000E+03
         0.3070000000E+08     0.1000000000E+03
         0.3080000000E+08     0.1000000000E+03
         0.3080000000E+08     0.1000000000E+03
         0.3090000000E+08     0.1000000000E+03
         0.3100000000E+08     0.1000000000E+03
         0.3110000000E+08     0.1000000000E+03
         0.3120000000E+08     0.1000000000E+03
         0.3130000000E+08     0.1000000000E+03
         0.3140000000E+08     0.1000000000E+03
         0.3150000000E+08     0.1000000000E+03
         0.3150000000E+08     0.1000000000E+03
         0.3160000000E+08     0.1000000000E+03
         0.3170000000E+08     0.1000000000E+03
         0.3180000000E+08     0.1000000000E+03
         0.3190000000E+08     0.1000000000E+03
         0.3200000000E+08     0.1000000000E+03
         0.3210000000E+08     0.1000000000E+03
         0.3210000000E+08     0.1000000000E+03
         0.3220000000E+08     0.1000000000E+03
         0.3230000000E+08     0.1000000000E+03
         0.3240000000E+08     0.1000000000E+03
         0.3250000000E+08     0.1000000000E+03
         0.3260000000E+08     0.1000000000E+03
         0.3270000000E+08     0.1000000000E+03
         0.3270000000E+08     0.1000000000E+03
         0.3280000000E+08     0.1000000000E+03
         0.3290000000E+08     0.1000000000E+03
         0.3300000000E+08     0.1000000000E+03
         0.3310000000E+08     0.1000000000E+03
         0.3320000000E+08     0.1000000000E+03
         0.3330000000E+08     0.1000000000E+03
         0.3340000000E+08     0.1000000000E+03
         0.3340000000E+08     0.1000000000E+03
         0.3350000000E+08     0.1000000000E+03
         0.3360000000E+08     0.1000000000E+03
         0.3370000000E+08     0.1000000000E+03
         0.3380000000E+08     0.1000000000E+03
         0.3390000000E+08     0.1000000000E+03
         0.3400000000E+08     0.1000000000E+03
         0.3400000000E+08     0.1000000000E+03
         0.3410000000E+08     0.1000000000E+03
         0.3420000000E+08     0.1000000000E+03
         0.3430000000E+08     0.1000000000E+03
         0.3440000000E+08     0.1000000000E+03
         0.3450000000E+08     0.1000000000E+03
         0.3460000000E+08     0.1000000000E+03
         0.3460000000E+08     0.1000000000E+03
         0.3470000000E+08     0.1000000000E+03
         0.3480000000E+08     0.1000000000E+03
         0.3490000000E+08     0.1000000000E+03
         0.3500000000E+08     0.1000000000E+03
         0.3510000000E+08     0.1000000000E+03
         0.3520000000E+08     0.1000000000E+03
         0.3530000000E+08     0.1000000000E+03
         0.3530000000E+08     0.1000000000E+03
         0.3540000000E+08     0.1000000000E+03
         0.3550000000E+08     0.1000000000E+03
         0.3560000000E+08     0.1000000000E+03
         0.3570000000E+08     0.1000000000E+03
         0.3580000000E+08     0.1000000000E+03
         0.3590000000E+08     0.1000000000E+03
         0.3590000000E+08     0.1000000000E+03
         0.3600000000E+08     0.1000000000E+03
         0.3610000000E+08     0.1000000000E+03
         0.3620000000E+08     0.1000000000E+03
         0.3630000000E+08     0.1000000000E+03
         0.3640000000E+08     0.1000000000E+03
         0.3650000000E+08     0.1000000000E+03
         0.3650000000E+08     0.1000000000E+03
         0.3660000000E+08     0.1000000000E+03
         0.3670000000E+08     0.1000000000E+03
         0.3680000000E+08     0.1000000000E+03
         0.3690000000E+08     0.1000000000E+03
         0.3700000000E+08     0.1000000000E+03
         0.3710000000E+08     0.1000000000E+03
         0.3720000000E+08     0.1000000000E+03
         0.3720000000E+08     0.1000000000E+03
         0.3730000000E+08     0.1000000000E+03
         0.3740000000E+08     0.1000000000E+03
         0.3750000000E+08     0.1000000000E+03
         0.3760000000E+08     0.1000000000E+03
         0.3770000000E+08     0.1000000000E+03
         0.3780000000E+08     0.1000000000E+03
         0.3780000000E+08     0.1000000000E+03
         0.3790000000E+08     0.1000000000E+03
         0.3800000000E+08     0.1000000000E+03
         0.3810000000E+08     0.1000000000E+03
         0.3820000000E+08     0.1000000000E+03
         0.3830000000E+08     0.1000000000E+03
         0.3840000000E+08     0.1000000000E+03
         0.3840000000E+08     0.1000000000E+03
         0.3850000000E+08     0.1000000000E+03
         0.3860000000E+08     0.1000000000E+03
         0.3870000000E+08     0.1000000000E+03
         0.3880000000E+08     0.1000000000E+03
         0.3890000000E+08     0.1000000000E+03
         0.3900000000E+08     0.1000000000E+03
         0.3910000000E+08     0.1000000000E+03
         0.3910000000E+08     0.1000000000E+03
         0.3920000000E+08     0.1000000000E+03
         0.3930000000E+08     0.1000000000E+03
         0.3940000000E+08     0.1000000000E+03
         0.3950000000E+08     0.1000000000E+03
         0.3960000000E+08     0.1000000000E+03
         0.3970000000E+08     0.1000000000E+03
         0.3970000000E+08     0.1000000000E+03
         0.3980000000E+08     0.1000000000E+03
         0.3990000000E+08     0.1000000000E+03
         0.4000000000E+08     0.1000000000E+03
         0.4010000000E+08     0.1000000000E+03
         0.4020000000E+08     0.1000000000E+03
         0.4030000000E+08     0.1000000000E+03
         0.4030000000E+08     0.1000000000E+03
         0.4040000000E+08     0.1000000000E+03
         0.4050000000E+08     0.1000000000E+03
         0.4060000000E+08     0.1000000000E+03
         0.4070000000E+08     0.1000000000E+03
         0.4080000000E+08     0.1000000000E+03
         0.4090000000E+08     0.1000000000E+03
         0.4100000000E+08     0.1000000000E+03
         0.4100000000E+08     0.1000000000E+03
         0.4110000000E+08     0.1000000000E+03
         0.4120000000E+08     0.1000000000E+03
         0.4130000000E+08     0.1000000000E+03
         0.4140000000E+08     0.1000000000E+03
         0.4150000000E+08     0.1000000000E+03
         0.4160000000E+08     0.1000000000E+03
         0.4160000000E+08     0.1000000000E+03
         0.4170000000E+08     0.1000000000E+03
         0.4180000000E+08     0.1000000000E+03
         0.4190000000E+08     0.1000000000E+03
         0.4200000000E+08     0.1000000000E+03
         0.4210000000E+08     0.1000000000E+03
         0.4220000000E+08     0.1000000000E+03
         0.4230000000E+08     0.1000000000E+03
         0.4230000000E+08     0.1000000000E+03
         0.4240000000E+08     0.1000000000E+03
         0.4250000000E+08     0.1000000000E+03
         0.4260000000E+08     0.1000000000E+03
         0.4270000000E+08     0.1000000000E+03
         0.4280000000E+08     0.1000000000E+03
         0.4290000000E+08     0.1000000000E+03
         0.4290000000E+08     0.1000000000E+03
         0.4300000000E+08     0.1000000000E+03
         0.4310000000E+08     0.1000000000E+03
         0.4320000000E+08     0.1000000000E+03
         0.4330000000E+08     0.1000000000E+03
         0.4340000000E+08     0.1000000000E+03
         0.4350000000E+08     0.1000000000E+03
         0.4350000000E+08     0.1000000000E+03
         0.4360000000E+08     0.1000000000E+03
         0.4370000000E+08     0.1000000000E+03
         0.4380000000E+08     0.1000000000E+03
         0.4390000000E+08     0.1000000000E+03
         0.4400000000E+08     0.1000000000E+03
         0.4410000000E+08     0.1000000000E+03
         0.4420000000E+08     0.1000000000E+03
         0.4420000000E+08     0.1000000000E+03
         0.4430000000E+08     0.1000000000E+03
         0.4440000000E+08     0.1000000000E+03
         0.4450000000E+08     0.1000000000E+03
         0.4460000000E+08     0.1000000000E+03
         0.4470000000E+08     0.1000000000E+03
         0.4480000000E+08     0.1000000000E+03
         0.4480000000E+08     0.1000000000E+03
         0.4490000000E+08     0.1000000000E+03
         0.4500000000E+08     0.1000000000E+03
         0.4510000000E+08     0.1000000000E+03
         0.4520000000E+08     0.1000000000E+03
         0.4530000000E+08     0.1000000000E+03
         0.4540000000E+08     0.1000000000E+03
         0.4540000000E+08     0.1000000000E+03
         0.4550000000E+08     0.1000000000E+03
         0.4560000000E+08     0.1000000000E+03
         0.4570000000E+08     0.1000000000E+03
         0.4580000000E+08     0.1000000000E+03
         0.4590000000E+08     0.1000000000E+03
         0.4600000000E+08     0.1000000000E+03
         0.4610000000E+08     0.1000000000E+03
         0.4610000000E+08     0.1000000000E+03
         0.4620000000E+08     0.1000000000E+03
         0.4630000000E+08     0.1000000000E+03
         0.4640000000E+08     0.1000000000E+03
         0.4650000000E+08     0.1000000000E+03
         0.4660000000E+08     0.1000000000E+03
         0.4670000000E+08     0.1000000000E+03
         0.4670000000E+08     0.1000000000E+03
         0.4680000000E+08     0.1000000000E+03
         0.4690000000E+08     0.1000000000E+03
         0.4700000000E+08     0.1000000000E+03
         0.4710000000E+08     0.1000000000E+03
         0.4720000000E+08     0.1000000000E+03
         0.4730000000E+08     0.1000000000E+03
         0.4730000000E+08     0.1000000000E+03
         0.4740000000E+08     0.1000000000E+03
         0.4750000000E+08     0.1000000000E+03
         0.4760000000E+08     0.1000000000E+03
         0.4770000000E+08     0.1000000000E+03
         0.4780000000E+08     0.1000000000E+03
         0.4790000000E+08     0.1000000000E+03
         0.4800000000E+08     0.1000000000E+03
         0.4800000000E+08     0.1000000000E+03
         0.4810000000E+08     0.1000000000E+03
         0.4820000000E+08     0.1000000000E+03
         0.4830000000E+08     0.1000000000E+03
         0.4840000000E+08     0.1000000000E+03
         0.4850000000E+08     0.1000000000E+03
         0.4860000000E+08     0.1000000000E+03
         0.4860000000E+08     0.1000000000E+03
         0.4870000000E+08     0.1000000000E+03
         0.4880000000E+08     0.1000000000E+03
         0.4890000000E+08     0.1000000000E+03
         0.4900000000E+08     0.1000000000E+03
         0.4910000000E+08     0.1000000000E+03
         0.4920000000E+08     0.1000000000E+03
         0.4920000000E+08     0.1000000000E+03
         0.4930000000E+08     0.1000000000E+03
         0.4940000000E+08     0.1000000000E+03
         0.4950000000E+08     0.1000000000E+03
         0.4960000000E+08     0.1000000000E+03
         0.4970000000E+08     0.1000000000E+03
         0.4980000000E+08     0.1000000000E+03
         0.4990000000E+08     0.1000000000E+03
         0.4990000000E+08     0.1000000000E+03
         0.5000000000E+08     0.1000000000E+03
         0.5010000000E+08     0.1000000000E+03
         0.5020000000E+08     0.1000000000E+03
         0.5030000000E+08     0.1000000000E+03
         0.5040000000E+08     0.1000000000E+03
         0.5050000000E+08     0.1000000000E+03
         0.5050000000E+08     0.1000000000E+03
         0.5060000000E+08     0.1000000000E+03
         0.5070000000E+08     0.1000000000E+03
         0.5080000000E+08     0.1000000000E+03
         0.5090000000E+08     0.1000000000E+03
         0.5100000000E+08     0.1000000000E+03
         0.5110000000E+08     0.1000000000E+03
         0.5110000000E+08     0.1000000000E+03
         0.5120000000E+08     0.1000000000E+03
         0.5130000000E+08     0.1000000000E+03
         0.5140000000E+08     0.1000000000E+03
         0.5150000000E+08     0.1000000000E+03
         0.5160000000E+08     0.1000000000E+03
         0.5170000000E+08     0.1000000000E+03
         0.5180000000E+08     0.1000000000E+03
         0.5180000000E+08     0.1000000000E+03
         0.5190000000E+08     0.1000000000E+03
         0.5200000000E+08     0.1000000000E+03
         0.5210000000E+08     0.1000000000E+03
         0.5220000000E+08     0.1000000000E+03
         0.5230000000E+08     0.1000000000E+03
         0.5240000000E+08     0.1000000000E+03
         0.5240000000E+08     0.1000000000E+03
         0.5250000000E+08     0.1000000000E+03
         0.5260000000E+08     0.1000000000E+03
         0.5270000000E+08     0.1000000000E+03
         0.5280000000E+08     0.1000000000E+03
         0.5290000000E+08     0.1000000000E+03
         0.5300000000E+08     0.1000000000E+03
         0.5310000000E+08     0.1000000000E+03
         0.5310000000E+08     0.1000000000E+03
         0.5320000000E+08     0.1000000000E+03
         0.5330000000E+08     0.1000000000E+03
         0.5340000000E+08     0.1000000000E+03
         0.5350000000E+08     0.1000000000E+03
         0.5360000000E+08     0.1000000000E+03
         0.5370000000E+08     0.1000000000E+03
         0.5370000000E+08     0.1000000000E+03
         0.5380000000E+08     0.1000000000E+03
         0.5390000000E+08     0.1000000000E+03
         0.5400000000E+08     0.1000000000E+03
         0.5410000000E+08     0.1000000000E+03
         0.5420000000E+08     0.1000000000E+03
         0.5430000000E+08     0.1000000000E+03
         0.5430000000E+08     0.1000000000E+03
         0.5440000000E+08     0.1000000000E+03
         0.5450000000E+08     0.1000000000E+03
         0.5460000000E+08     0.1000000000E+03
         0.5470000000E+08     0.1000000000E+03
         0.5480000000E+08     0.1000000000E+03
         0.5490000000E+08     0.1000000000E+03
         0.5500000000E+08     0.1000000000E+03
         0.5500000000E+08     0.1000000000E+03
         0.5510000000E+08     0.1000000000E+03
         0.5520000000E+08     0.1000000000E+03
         0.5530000000E+08     0.1000000000E+03
         0.5540000000E+08     0.1000000000E+03
         0.5550000000E+08     0.1000000000E+03
         0.5560000000E+08     0.1000000000E+03
         0.5560000000E+08     0.1000000000E+03
         0.5570000000E+08     0.1000000000E+03
         0.5580000000E+08     0.1000000000E+03
         0.5590000000E+08     0.1000000000E+03
         0.5600000000E+08     0.1000000000E+03
         0.5610000000E+08     0.1000000000E+03
         0.5620000000E+08     0.1000000000E+03
         0.5620000000E+08     0.1000000000E+03
         0.5630000000E+08     0.1000000000E+03
         0.5640000000E+08     0.1000000000E+03
         0.5650000000E+08     0.1000000000E+03
         0.5660000000E+08     0.1000000000E+03
         0.5670000000E+08     0.1000000000E+03
         0.5680000000E+08     0.1000000000E+03
         0.5690000000E+08     0.1000000000E+03
         0.5690000000E+08     0.1000000000E+03
         0.5700000000E+08     0.1000000000E+03
         0.5710000000E+08     0.1000000000E+03
         0.5720000000E+08     0.1000000000E+03
         0.5730000000E+08     0.1000000000E+03
         0.5740000000E+08     0.1000000000E+03
         0.5750000000E+08     0.1000000000E+03
         0.5750000000E+08     0.1000000000E+03
         0.5760000000E+08     0.1000000000E+03
         0.5770000000E+08     0.1000000000E+03
         0.5780000000E+08     0.1000000000E+03
         0.5790000000E+08     0.1000000000E+03
         0.5800000000E+08     0.1000000000E+03
         0.5810000000E+08     0.1000000000E+03
         0.5810000000E+08     0.1000000000E+03
         0.5820000000E+08     0.1000000000E+03
         0.5830000000E+08     0.1000000000E+03
         0.5840000000E+08     0.1000000000E+03
         0.5850000000E+08     0.1000000000E+03
         0.5860000000E+08     0.1000000000E+03
         0.5870000000E+08     0.1000000000E+03
         0.5880000000E+08     0.1000000000E+03
         0.5880000000E+08     0.1000000000E+03
         0.5890000000E+08     0.1000000000E+03
         0.5900000000E+08     0.1000000000E+03
         0.5910000000E+08     0.1000000000E+03
         0.5920000000E+08     0.1000000000E+03
         0.5930000000E+08     0.1000000000E+03
         0.5940000000E+08     0.1000000000E+03
         0.5940000000E+08     0.1000000000E+03
         0.5950000000E+08     0.1000000000E+03
         0.5960000000E+08     0.1000000000E+03
         0.5970000000E+08     0.1000000000E+03
         0.5980000000E+08     0.1000000000E+03
         0.5990000000E+08     0.1000000000E+03
         0.6000000000E+08     0.1000000000E+03
         0.6000000000E+08     0.1000000000E+03
         0.6010000000E+08     0.1000000000E+03
         0.6020000000E+08     0.1000000000E+03
         0.6030000000E+08     0.1000000000E+03
         0.6040000000E+08     0.1000000000E+03
         0.6050000000E+08     0.1000000000E+03
         0.6060000000E+08     0.1000000000E+03
         0.6070000000E+08     0.1000000000E+03
         0.6070000000E+08     0.1000000000E+03
         0.6080000000E+08     0.1000000000E+03
         0.6090000000E+08     0.1000000000E+03
         0.6100000000E+08     0.1000000000E+03
         0.6110000000E+08     0.1000000000E+03
         0.6120000000E+08     0.1000000000E+03
         0.6130000000E+08     0.1000000000E+03
         0.6130000000E+08     0.1000000000E+03
         0.6140000000E+08     0.1000000000E+03
         0.6150000000E+08     0.1000000000E+03
         0.6160000000E+08     0.1000000000E+03
         0.6170000000E+08     0.1000000000E+03
         0.6180000000E+08     0.1000000000E+03
         0.6190000000E+08     0.1000000000E+03
         0.6190000000E+08     0.1000000000E+03
         0.6200000000E+08     0.1000000000E+03
         0.6210000000E+08     0.1000000000E+03
         0.6220000000E+08     0.1000000000E+03
         0.6230000000E+08     0.1000000000E+03
         0.6240000000E+08     0.1000000000E+03
         0.6250000000E+08     0.1000000000E+03
         0.6260000000E+08     0.1000000000E+03
         0.6260000000E+08     0.1000000000E+03
         0.6270000000E+08     0.1000000000E+03
         0.6280000000E+08     0.1000000000E+03
         0.6290000000E+08     0.1000000000E+03
         0.6300000000E+08     0.1000000000E+03
         0.6310000000E+08     0.1000000000E+03
         0.6320000000E+08     0.1000000000E+03
         0.6320000000E+08     0.1000000000E+03
         0.6330000000E+08     0.1000000000E+03
         0.6340000000E+08     0.1000000000E+03
         0.6350000000E+08     0.1000000000E+03
         0.6360000000E+08     0.1000000000E+03
         0.6370000000E+08     0.1000000000E+03
         0.6380000000E+08     0.1000000000E+03
         0.6390000000E+08     0.1000000000E+03
         0.6390000000E+08     0.1000000000E+03
         0.6400000000E+08     0.1000000000E+03
         0.6410000000E+08     0.1000000000E+03
         0.6420000000E+08     0.1000000000E+03
         0.6430000000E+08     0.1000000000E+03
         0.6440000000E+08     0.1000000000E+03
         0.6450000000E+08     0.1000000000E+03
         0.6450000000E+08     0.1000000000E+03
         0.6460000000E+08     0.1000000000E+03
         0.6470000000E+08     0.1000000000E+03
         0.6480000000E+08     0.1000000000E+03
         0.6490000000E+08     0.1000000000E+03
         0.6500000000E+08     0.1000000000E+03
         0.6510000000E+08     0.1000000000E+03
         0.6510000000E+08     0.1000000000E+03
         0.6520000000E+08     0.1000000000E+03
         0.6530000000E+08     0.1000000000E+03
         0.6540000000E+08     0.1000000000E+03
         0.6550000000E+08     0.1000000000E+03
         0.6560000000E+08     0.1000000000E+03
         0.6570000000E+08     0.1000000000E+03
         0.6580000000E+08     0.1000000000E+03
         0.6590000000E+08     0.1000000000E+03
         0.6600000000E+08     0.1000000000E+03
         0.6610000000E+08     0.1000000000E+03
         0.6610000000E+08     0.1000000000E+03
         0.6620000000E+08     0.1000000000E+03
         0.6630000000E+08     0.1000000000E+03
         0.6640000000E+08     0.1000000000E+03
         0.6650000000E+08     0.1000000000E+03
         0.6660000000E+08     0.1000000000E+03
         0.6670000000E+08     0.1000000000E+03
         0.6670000000E+08     0.1000000000E+03
         0.6680000000E+08     0.1000000000E+03
         0.6690000000E+08     0.1000000000E+03
         0.6700000000E+08     0.1000000000E+03
         0.6710000000E+08     0.1000000000E+03
         0.6720000000E+08     0.1000000000E+03
         0.6730000000E+08     0.1000000000E+03
         0.6730000000E+08     0.1000000000E+03
         0.6740000000E+08     0.1000000000E+03
         0.6750000000E+08     0.1000000000E+03
         0.6760000000E+08     0.1000000000E+03
         0.6770000000E+08     0.1000000000E+03
         0.6780000000E+08     0.1000000000E+03
         0.6790000000E+08     0.1000000000E+03
         0.6800000000E+08     0.1000000000E+03
         0.6810000000E+08     0.1000000000E+03
         0.6820000000E+08     0.1000000000E+03
         0.6830000000E+08     0.1000000000E+03
         0.6830000000E+08     0.1000000000E+03
         0.6840000000E+08     0.1000000000E+03
         0.6850000000E+08     0.1000000000E+03
         0.6860000000E+08     0.1000000000E+03
         0.6870000000E+08     0.1000000000E+03
         0.6880000000E+08     0.1000000000E+03
         0.6890000000E+08     0.1000000000E+03
         0.6890000000E+08     0.1000000000E+03
         0.6900000000E+08     0.1000000000E+03
         0.6910000000E+08     0.1000000000E+03
         0.6920000000E+08     0.1000000000E+03
         0.6930000000E+08     0.1000000000E+03
         0.6940000000E+08     0.1000000000E+03
         0.6950000000E+08     0.1000000000E+03
         0.6950000000E+08     0.1000000000E+03
         0.6960000000E+08     0.1000000000E+03
         0.6970000000E+08     0.1000000000E+03
         0.6980000000E+08     0.1000000000E+03
         0.6990000000E+08     0.1000000000E+03
         0.7000000000E+08     0.1000000000E+03
         0.7010000000E+08     0.1000000000E+03
         0.7020000000E+08     0.1000000000E+03
         0.7030000000E+08     0.1000000000E+03
         0.7040000000E+08     0.1000000000E+03
         0.7050000000E+08     0.1000000000E+03
         0.7050000000E+08     0.1000000000E+03
         0.7060000000E+08     0.1000000000E+03
         0.7070000000E+08     0.1000000000E+03
         0.7080000000E+08     0.1000000000E+03
         0.7090000000E+08     0.1000000000E+03
         0.7100000000E+08     0.1000000000E+03
         0.7110000000E+08     0.1000000000E+03
         0.7110000000E+08     0.1000000000E+03
         0.7120000000E+08     0.1000000000E+03
         0.7130000000E+08     0.1000000000E+03
         0.7140000000E+08     0.1000000000E+03
         0.7150000000E+08     0.1000000000E+03
         0.7160000000E+08     0.1000000000E+03
         0.7170000000E+08     0.1000000000E+03
         0.7170000000E+08     0.1000000000E+03
         0.7180000000E+08     0.1000000000E+03
         0.7190000000E+08     0.1000000000E+03
         0.7200000000E+08     0.1000000000E+03
         0.7210000000E+08     0.1000000000E+03
         0.7220000000E+08     0.1000000000E+03
         0.7230000000E+08     0.1000000000E+03
         0.7240000000E+08     0.1000000000E+03
         0.7250000000E+08     0.1000000000E+03
         0.7260000000E+08     0.1000000000E+03
         0.7270000000E+08     0.1000000000E+03
         0.7270000000E+08     0.1000000000E+03
         0.7280000000E+08     0.1000000000E+03
         0.7290000000E+08     0.1000000000E+03
         0.7300000000E+08     0.1000000000E+03
         0.7310000000E+08     0.1000000000E+03
         0.7320000000E+08     0.1000000000E+03
         0.7330000000E+08     0.1000000000E+03
         0.7330000000E+08     0.1000000000E+03
         0.7340000000E+08     0.1000000000E+03
         0.7350000000E+08     0.1000000000E+03
         0.7360000000E+08     0.1000000000E+03
         0.7370000000E+08     0.1000000000E+03
         0.7380000000E+08     0.1000000000E+03
         0.7390000000E+08     0.1000000000E+03
         0.7390000000E+08     0.1000000000E+03
         0.7400000000E+08     0.1000000000E+03
         0.7410000000E+08     0.1000000000E+03
         0.7420000000E+08     0.1000000000E+03
         0.7430000000E+08     0.1000000000E+03
         0.7440000000E+08     0.1000000000E+03
         0.7450000000E+08     0.1000000000E+03
         0.7460000000E+08     0.1000000000E+03
         0.7470000000E+08     0.1000000000E+03
         0.7480000000E+08     0.1000000000E+03
         0.7490000000E+08     0.1000000000E+03
         0.7490000000E+08     0.1000000000E+03
         0.7500000000E+08     0.1000000000E+03
         0.7510000000E+08     0.1000000000E+03
         0.7520000000E+08     0.1000000000E+03
         0.7530000000E+08     0.1000000000E+03
         0.7540000000E+08     0.1000000000E+03
         0.7550000000E+08     0.1000000000E+03
         0.7550000000E+08     0.1000000000E+03
         0.7560000000E+08     0.1000000000E+03
         0.7570000000E+08     0.1000000000E+03
         0.7580000000E+08     0.1000000000E+03
         0.7590000000E+08     0.1000000000E+03
         0.7600000000E+08     0.1000000000E+03
         0.7610000000E+08     0.1000000000E+03
         0.7610000000E+08     0.1000000000E+03
         0.7620000000E+08     0.1000000000E+03
         0.7630000000E+08     0.1000000000E+03
         0.7640000000E+08     0.1000000000E+03
         0.7650000000E+08     0.1000000000E+03
         0.7660000000E+08     0.1000000000E+03
         0.7670000000E+08     0.1000000000E+03
         0.7680000000E+08     0.1000000000E+03
         0.7690000000E+08     0.1000000000E+03
         0.7700000000E+08     0.1000000000E+03
         0.7710000000E+08     0.1000000000E+03
         0.7710000000E+08     0.1000000000E+03
         0.7720000000E+08     0.1000000000E+03
         0.7730000000E+08     0.1000000000E+03
         0.7740000000E+08     0.1000000000E+03
         0.7750000000E+08     0.1000000000E+03
         0.7760000000E+08     0.1000000000E+03
         0.7770000000E+08     0.1000000000E+03
         0.7770000000E+08     0.1000000000E+03
         0.7780000000E+08     0.1000000000E+03
         0.7790000000E+08     0.1000000000E+03
         0.7800000000E+08     0.1000000000E+03
         0.7810000000E+08     0.1000000000E+03
         0.7820000000E+08     0.1000000000E+03
         0.7830000000E+08     0.1000000000E+03
         0.7830000000E+08     0.1000000000E+03
         0.7840000000E+08     0.1000000000E+03
         0.7850000000E+08     0.1000000000E+03
         0.7860000000E+08     0.1000000000E+03
         0.7870000000E+08     0.1000000000E+03
         0.7880000000E+08     0.1000000000E+03
         0.7890000000E+08     0.1000000000E+03
         0.7900000000E+08     0.1000000000E+03
         0.7910000000E+08     0.1000000000E+03
         0.7920000000E+08     0.1000000000E+03
         0.7930000000E+08     0.1000000000E+03
         0.7930000000E+08     0.1000000000E+03
         0.7940000000E+08     0.1000000000E+03
         0.7950000000E+08     0.1000000000E+03
         0.7960000000E+08     0.1000000000E+03
         0.7970000000E+08     0.1000000000E+03
         0.7980000000E+08     0.1000000000E+03
         0.7990000000E+08     0.1000000000E+03
         0.7990000000E+08     0.1000000000E+03
         0.8000000000E+08     0.1000000000E+03
         0.8010000000E+08     0.1000000000E+03
         0.8020000000E+08     0.1000000000E+03
         0.8030000000E+08     0.1000000000E+03
         0.8040000000E+08     0.1000000000E+03
         0.8050000000E+08     0.1000000000E+03
         0.8050000000E+08     0.1000000000E+03
         0.8060000000E+08     0.1000000000E+03
         0.8070000000E+08     0.1000000000E+03
         0.8080000000E+08     0.1000000000E+03
         0.8090000000E+08     0.1000000000E+03
         0.8100000000E+08     0.1000000000E+03
         0.8110000000E+08     0.1000000000E+03
         0.8120000000E+08     0.1000000000E+03
         0.8130000000E+08     0.1000000000E+03
         0.8140000000E+08     0.1000000000E+03
         0.8150000000E+08     0.1000000000E+03
         0.8150000000E+08     0.1000000000E+03
         0.8160000000E+08     0.1000000000E+03
         0.8170000000E+08     0.1000000000E+03
         0.8180000000E+08     0.1000000000E+03
         0.8190000000E+08     0.1000000000E+03
         0.8200000000E+08     0.1000000000E+03
         0.8210000000E+08     0.1000000000E+03
         0.8210000000E+08     0.1000000000E+03
         0.8220000000E+08     0.1000000000E+03
         0.8230000000E+08     0.1000000000E+03
         0.8240000000E+08     0.1000000000E+03
         0.8250000000E+08     0.1000000000E+03
         0.8260000000E+08     0.1000000000E+03
         0.8270000000E+08     0.1000000000E+03
         0.8270000000E+08     0.1000000000E+03
         0.8280000000E+08     0.1000000000E+03
         0.8290000000E+08     0.1000000000E+03
         0.8300000000E+08     0.1000000000E+03
         0.8310000000E+08     0.1000000000E+03
         0.8320000000E+08     0.1000000000E+03
         0.8330000000E+08     0.1000000000E+03
         0.8340000000E+08     0.1000000000E+03
         0.8350000000E+08     0.1000000000E+03
         0.8360000000E+08     0.1000000000E+03
         0.8370000000E+08     0.1000000000E+03
         0.8370000000E+08     0.1000000000E+03
         0.8380000000E+08     0.1000000000E+03
         0.8390000000E+08     0.1000000000E+03
         0.8400000000E+08     0.1000000000E+03
         0.8410000000E+08     0.1000000000E+03
         0.8420000000E+08     0.1000000000E+03
         0.8430000000E+08     0.1000000000E+03
         0.8430000000E+08     0.1000000000E+03
         0.8440000000E+08     0.1000000000E+03
         0.8450000000E+08     0.1000000000E+03
         0.8460000000E+08     0.1000000000E+03
         0.8470000000E+08     0.1000000000E+03
         0.8480000000E+08     0.1000000000E+03
         0.8490000000E+08     0.1000000000E+03
         0.8490000000E+08     0.1000000000E+03
         0.8500000000E+08     0.1000000000E+03
         0.8510000000E+08     0.1000000000E+03
         0.8520000000E+08     0.1000000000E+03
         0.8530000000E+08     0.1000000000E+03
         0.8540000000E+08     0.1000000000E+03
         0.8550000000E+08     0.1000000000E+03
         0.8560000000E+08     0.1000000000E+03
         0.8570000000E+08     0.1000000000E+03
         0.8580000000E+08     0.1000000000E+03
         0.8590000000E+08     0.1000000000E+03
         0.8590000000E+08     0.1000000000E+03
         0.8600000000E+08     0.1000000000E+03
         0.8610000000E+08     0.1000000000E+03
         0.8620000000E+08     0.1000000000E+03
         0.8630000000E+08     0.1000000000E+03
         0.8640000000E+08     0.1000000000E+03
         0.8650000000E+08     0.1000000000E+03
         0.8650000000E+08     0.1000000000E+03
         0.8660000000E+08     0.1000000000E+03
         0.8670000000E+08     0.1000000000E+03
         0.8680000000E+08     0.1000000000E+03
         0.8690000000E+08     0.1000000000E+03
         0.8700000000E+08     0.1000000000E+03
         0.8710000000E+08     0.1000000000E+03
         0.8710000000E+08     0.1000000000E+03
         0.8720000000E+08     0.1000000000E+03
         0.8730000000E+08     0.1000000000E+03
         0.8740000000E+08     0.1000000000E+03
         0.8750000000E+08     0.1000000000E+03
         0.8760000000E+08     0.1000000000E+03
         0.8770000000E+08     0.1000000000E+03
         0.8780000000E+08     0.1000000000E+03
         0.8790000000E+08     0.1000000000E+03
         0.8800000000E+08     0.1000000000E+03
         0.8810000000E+08     0.1000000000E+03
         0.8810000000E+08     0.1000000000E+03
         0.8820000000E+08     0.1000000000E+03
         0.8830000000E+08     0.1000000000E+03
         0.8840000000E+08     0.1000000000E+03
         0.8850000000E+08     0.1000000000E+03
         0.8860000000E+08     0.1000000000E+03
         0.8870000000E+08     0.1000000000E+03
         0.8870000000E+08     0.1000000000E+03
         0.8880000000E+08     0.1000000000E+03
         0.8890000000E+08     0.1000000000E+03
         0.8900000000E+08     0.1000000000E+03
         0.8910000000E+08     0.1000000000E+03
         0.8920000000E+08     0.1000000000E+03
         0.8930000000E+08     0.1000000000E+03
         0.8930000000E+08     0.1000000000E+03
         0.8940000000E+08     0.1000000000E+03
         0.8950000000E+08     0.1000000000E+03
         0.8960000000E+08     0.1000000000E+03
         0.8970000000E+08     0.1000000000E+03
         0.8980000000E+08     0.1000000000E+03
         0.8990000000E+08     0.1000000000E+03
         0.9000000000E+08     0.1000000000E+03
         0.9010000000E+08     0.1000000000E+03
         0.9020000000E+08     0.1000000000E+03
         0.9030000000E+08     0.1000000000E+03
         0.9030000000E+08     0.1000000000E+03
         0.9040000000E+08     0.1000000000E+03
         0.9050000000E+08     0.1000000000E+03
         0.9060000000E+08     0.1000000000E+03
         0.9070000000E+08     0.1000000000E+03
         0.9080000000E+08     0.1000000000E+03
         0.9090000000E+08     0.1000000000E+03
         0.9090000000E+08     0.1000000000E+03
         0.9100000000E+08     0.1000000000E+03
         0.9110000000E+08     0.1000000000E+03
         0.9120000000E+08     0.1000000000E+03
         0.9130000000E+08     0.1000000000E+03
         0.9140000000E+08     0.1000000000E+03
         0.9150000000E+08     0.1000000000E+03
         0.9150000000E+08     0.1000000000E+03
         0.9160000000E+08     0.1000000000E+03
         0.9170000000E+08     0.1000000000E+03
         0.9180000000E+08     0.1000000000E+03
         0.9190000000E+08     0.1000000000E+03
         0.9200000000E+08     0.1000000000E+03
         0.9210000000E+08     0.1000000000E+03
         0.9220000000E+08     0.1000000000E+03
         0.9230000000E+08     0.1000000000E+03
         0.9240000000E+08     0.1000000000E+03
         0.9250000000E+08     0.1000000000E+03
         0.9250000000E+08     0.1000000000E+03
         0.9260000000E+08     0.1000000000E+03
         0.9270000000E+08     0.1000000000E+03
         0.9280000000E+08     0.1000000000E+03
         0.9290000000E+08     0.1000000000E+03
         0.9300000000E+08     0.1000000000E+03
         0.9310000000E+08     0.1000000000E+03
         0.9310000000E+08     0.1000000000E+03
         0.9320000000E+08     0.1000000000E+03
         0.9330000000E+08     0.1000000000E+03
         0.9340000000E+08     0.1000000000E+03
         0.9350000000E+08     0.1000000000E+03
         0.9360000000E+08     0.1000000000E+03
         0.9370000000E+08     0.1000000000E+03
         0.9370000000E+08     0.1000000000E+03
         0.9380000000E+08     0.1000000000E+03
         0.9390000000E+08     0.1000000000E+03
         0.9400000000E+08     0.1000000000E+03
         0.9410000000E+08     0.1000000000E+03
         0.9420000000E+08     0.1000000000E+03
         0.9430000000E+08     0.1000000000E+03
         0.9440000000E+08     0.1000000000E+03
         0.9450000000E+08     0.1000000000E+03
         0.9460000000E+08     0.1000000000E+03
         0.9470000000E+08     0.1000000000E+03
         0.9470000000E+08     0.1000000000E+03
         0.9480000000E+08     0.1000000000E+03
         0.9490000000E+08     0.1000000000E+03
         0.9500000000E+08     0.1000000000E+03
         0.9510000000E+08     0.1000000000E+03
         0.9520000000E+08     0.1000000000E+03
         0.9530000000E+08     0.1000000000E+03
         0.9530000000E+08     0.1000000000E+03
         0.9540000000E+08     0.1000000000E+03
         0.9550000000E+08     0.1000000000E+03
         0.9560000000E+08     0.1000000000E+03
         0.9570000000E+08     0.1000000000E+03
         0.9580000000E+08     0.1000000000E+03
         0.9590000000E+08     0.1000000000E+03
         0.9590000000E+08     0.1000000000E+03
         0.9600000000E+08     0.1000000000E+03
         0.9610000000E+08     0.1000000000E+03
         0.9620000000E+08     0.1000000000E+03
         0.9630000000E+08     0.1000000000E+03
         0.9640000000E+08     0.1000000000E+03
         0.9650000000E+08     0.1000000000E+03
         0.9660000000E+08     0.1000000000E+03
         0.9670000000E+08     0.1000000000E+03
         0.9680000000E+08     0.1000000000E+03
         0.9690000000E+08     0.1000000000E+03
         0.9690000000E+08     0.1000000000E+03
         0.9700000000E+08     0.1000000000E+03
         0.9710000000E+08     0.1000000000E+03
         0.9720000000E+08     0.1000000000E+03
         0.9730000000E+08     0.1000000000E+03
         0.9740000000E+08     0.1000000000E+03
         0.9750000000E+08     0.1000000000E+03
         0.9750000000E+08     0.1000000000E+03
         0.9760000000E+08     0.1000000000E+03
         0.9770000000E+08     0.1000000000E+03
         0.9780000000E+08     0.1000000000E+03
         0.9790000000E+08     0.1000000000E+03
         0.9800000000E+08     0.1000000000E+03
         0.9810000000E+08     0.1000000000E+03
         0.9810000000E+08     0.1000000000E+03
         0.9820000000E+08     0.1000000000E+03
         0.9830000000E+08     0.1000000000E+03
         0.9840000000E+08     0.1000000000E+03
         0.9850000000E+08     0.1000000000E+03
         0.9860000000E+08     0.1000000000E+03
         0.9870000000E+08     0.1000000000E+03
         0.9880000000E+08     0.1000000000E+03
         0.9890000000E+08     0.1000000000E+03
         0.9900000000E+08     0.1000000000E+03
         0.9910000000E+08     0.1000000000E+03
         0.9910000000E+08     0.1000000000E+03
         0.9920000000E+08     0.1000000000E+03
         0.9930000000E+08     0.1000000000E+03
         0.9940000000E+08     0.1000000000E+03
         0.9950000000E+08     0.1000000000E+03
         0.9960000000E+08     0.1000000000E+03
         0.9970000000E+08     0.1000000000E+03
         0.9970000000E+08     0.1000000000E+03
         0.9980000000E+08     0.1000000000E+03
         0.9990000000E+08     0.1000000000E+03
         0.1000000000E+09     0.1000000000E+03
         0.1001000000E+09     0.1000000000E+03
         0.1002000000E+09     0.1000000000E+03
         0.1003000000E+09     0.1000000000E+03
         0.1003000000E+09     0.1000000000E+03
         0.1004000000E+09     0.1000000000E+03
         0.1005000000E+09     0.1000000000E+03
         0.1006000000E+09     0.1000000000E+03
         0.1007000000E+09     0.1000000000E+03
         0.1008000000E+09     0.1000000000E+03
         0.1009000000E+09     0.1000000000E+03
         0.1010000000E+09     0.1000000000E+03
         0.1011000000E+09     0.1000000000E+03
         0.1012000000E+09     0.1000000000E+03
         0.1013000000E+09     0.1000000000E+03
         0.1013000000E+09     0.1000000000E+03
         0.1014000000E+09     0.1000000000E+03
         0.1015000000E+09     0.1000000000E+03
         0.1016000000E+09     0.1000000000E+03
         0.1017000000E+09     0.1000000000E+03
         0.1018000000E+09     0.1000000000E+03
         0.1019000000E+09     0.1000000000E+03
         0.1019000000E+09     0.1000000000E+03
         0.1020000000E+09     0.1000000000E+03
         0.1021000000E+09     0.1000000000E+03
         0.1022000000E+09     0.1000000000E+03
         0.1023000000E+09     0.1000000000E+03
         0.1024000000E+09     0.1000000000E+03
         0.1025000000E+09     0.1000000000E+03
         0.1025000000E+09     0.1000000000E+03
         0.1026000000E+09     0.1000000000E+03
         0.1027000000E+09     0.1000000000E+03
         0.1028000000E+09     0.1000000000E+03
         0.1029000000E+09     0.1000000000E+03
         0.1030000000E+09     0.1000000000E+03
         0.1031000000E+09     0.1000000000E+03
         0.1032000000E+09     0.1000000000E+03
         0.1033000000E+09     0.1000000000E+03
         0.1034000000E+09     0.1000000000E+03
         0.1035000000E+09     0.1000000000E+03
         0.1035000000E+09     0.1000000000E+03
         0.1036000000E+09     0.1000000000E+03
         0.1037000000E+09     0.1000000000E+03
         0.1038000000E+09     0.1000000000E+03
         0.1039000000E+09     0.1000000000E+03
         0.1040000000E+09     0.1000000000E+03
         0.1041000000E+09     0.1000000000E+03
         0.1041000000E+09     0.1000000000E+03
         0.1042000000E+09     0.1000000000E+03
         0.1043000000E+09     0.1000000000E+03
         0.1044000000E+09     0.1000000000E+03
         0.1045000000E+09     0.1000000000E+03
         0.1046000000E+09     0.1000000000E+03
         0.1047000000E+09     0.1000000000E+03
         0.1047000000E+09     0.1000000000E+03
         0.1048000000E+09     0.1000000000E+03
         0.1049000000E+09     0.1000000000E+03
         0.1050000000E+09     0.1000000000E+03
         0.1051000000E+09     0.1000000000E+03
         0.1052000000E+09     0.1000000000E+03
         0.1053000000E+09     0.1000000000E+03
         0.1054000000E+09     0.1000000000E+03
         0.1055000000E+09     0.1000000000E+03
         0.1056000000E+09     0.1000000000E+03
         0.1057000000E+09     0.1000000000E+03
         0.1057000000E+09     0.1000000000E+03
         0.1058000000E+09     0.1000000000E+03
         0.1059000000E+09     0.1000000000E+03
         0.1060000000E+09     0.1000000000E+03
         0.1061000000E+09     0.1000000000E+03
         0.1062000000E+09     0.1000000000E+03
         0.1063000000E+09     0.1000000000E+03
         0.1063000000E+09     0.1000000000E+03
         0.1064000000E+09     0.1000000000E+03
         0.1065000000E+09     0.1000000000E+03
         0.1066000000E+09     0.1000000000E+03
         0.1067000000E+09     0.1000000000E+03
         0.1068000000E+09     0.1000000000E+03
         0.1069000000E+09     0.1000000000E+03
         0.1069000000E+09     0.1000000000E+03
         0.1070000000E+09     0.1000000000E+03
         0.1071000000E+09     0.1000000000E+03
         0.1072000000E+09     0.1000000000E+03
         0.1073000000E+09     0.1000000000E+03
         0.1074000000E+09     0.1000000000E+03
         0.1075000000E+09     0.1000000000E+03
         0.1076000000E+09     0.1000000000E+03
         0.1077000000E+09     0.1000000000E+03
         0.1078000000E+09     0.1000000000E+03
         0.1079000000E+09     0.1000000000E+03
         0.1079000000E+09     0.1000000000E+03
         0.1080000000E+09     0.1000000000E+03
         0.1081000000E+09     0.1000000000E+03
         0.1082000000E+09     0.1000000000E+03
         0.1083000000E+09     0.1000000000E+03
         0.1084000000E+09     0.1000000000E+03
         0.1085000000E+09     0.1000000000E+03
         0.1085000000E+09     0.1000000000E+03
         0.1086000000E+09     0.1000000000E+03
         0.1087000000E+09     0.1000000000E+03
         0.1088000000E+09     0.1000000000E+03
         0.1089000000E+09     0.1000000000E+03
         0.1090000000E+09     0.1000000000E+03
         0.1091000000E+09     0.1000000000E+03
         0.1091000000E+09     0.1000000000E+03
         0.1092000000E+09     0.1000000000E+03
         0.1093000000E+09     0.1000000000E+03
         0.1094000000E+09     0.1000000000E+03
         0.1095000000E+09     0.1000000000E+03
         0.1096000000E+09     0.1000000000E+03
         0.1097000000E+09     0.1000000000E+03
         0.1098000000E+09     0.1000000000E+03
         0.1099000000E+09     0.1000000000E+03
         0.1100000000E+09     0.1000000000E+03
         0.1101000000E+09     0.1000000000E+03
         0.1101000000E+09     0.1000000000E+03
         0.1102000000E+09     0.1000000000E+03
         0.1103000000E+09     0.1000000000E+03
         0.1104000000E+09     0.1000000000E+03
         0.1105000000E+09     0.1000000000E+03
         0.1106000000E+09     0.1000000000E+03
         0.1107000000E+09     0.1000000000E+03
         0.1107000000E+09     0.1000000000E+03
         0.1108000000E+09     0.1000000000E+03
         0.1109000000E+09     0.1000000000E+03
         0.1110000000E+09     0.1000000000E+03
         0.1111000000E+09     0.1000000000E+03
         0.1112000000E+09     0.1000000000E+03
         0.1113000000E+09     0.1000000000E+03
         0.1113000000E+09     0.1000000000E+03
         0.1114000000E+09     0.1000000000E+03
         0.1115000000E+09     0.1000000000E+03
         0.1116000000E+09     0.1000000000E+03
         0.1117000000E+09     0.1000000000E+03
         0.1118000000E+09     0.1000000000E+03
         0.1119000000E+09     0.1000000000E+03
         0.1120000000E+09     0.1000000000E+03
         0.1121000000E+09     0.1000000000E+03
         0.1122000000E+09     0.1000000000E+03
         0.1123000000E+09     0.1000000000E+03
         0.1123000000E+09     0.1000000000E+03
         0.1124000000E+09     0.1000000000E+03
         0.1125000000E+09     0.1000000000E+03
         0.1126000000E+09     0.1000000000E+03
         0.1127000000E+09     0.1000000000E+03
         0.1128000000E+09     0.1000000000E+03
         0.1129000000E+09     0.1000000000E+03
         0.1129000000E+09     0.1000000000E+03
         0.1130000000E+09     0.1000000000E+03
         0.1131000000E+09     0.1000000000E+03
         0.1132000000E+09     0.1000000000E+03
         0.1133000000E+09     0.1000000000E+03
         0.1134000000E+09     0.1000000000E+03
         0.1135000000E+09     0.1000000000E+03
         0.1135000000E+09     0.1000000000E+03
         0.1136000000E+09     0.1000000000E+03
         0.1137000000E+09     0.1000000000E+03
         0.1138000000E+09     0.1000000000E+03
         0.1139000000E+09     0.1000000000E+03
         0.1140000000E+09     0.1000000000E+03
         0.1141000000E+09     0.1000000000E+03
         0.1142000000E+09     0.1000000000E+03
         0.1143000000E+09     0.1000000000E+03
         0.1144000000E+09     0.1000000000E+03
         0.1145000000E+09     0.1000000000E+03
         0.1145000000E+09     0.1000000000E+03
         0.1146000000E+09     0.1000000000E+03
         0.1147000000E+09     0.1000000000E+03
         0.1148000000E+09     0.1000000000E+03
         0.1149000000E+09     0.1000000000E+03
         0.1150000000E+09     0.1000000000E+03
         0.1151000000E+09     0.1000000000E+03
         0.1151000000E+09     0.1000000000E+03
         0.1152000000E+09     0.1000000000E+03
         0.1153000000E+09     0.1000000000E+03
         0.1154000000E+09     0.1000000000E+03
         0.1155000000E+09     0.1000000000E+03
         0.1156000000E+09     0.1000000000E+03
         0.1157000000E+09     0.1000000000E+03
         0.1157000000E+09     0.1000000000E+03
         0.1158000000E+09     0.1000000000E+03
         0.1159000000E+09     0.1000000000E+03
         0.1160000000E+09     0.1000000000E+03
         0.1161000000E+09     0.1000000000E+03
         0.1162000000E+09     0.1000000000E+03
         0.1163000000E+09     0.1000000000E+03
         0.1164000000E+09     0.1000000000E+03
         0.1165000000E+09     0.1000000000E+03
         0.1166000000E+09     0.1000000000E+03
         0.1167000000E+09     0.1000000000E+03
         0.1167000000E+09     0.1000000000E+03
         0.1168000000E+09     0.1000000000E+03
         0.1169000000E+09     0.1000000000E+03
         0.1170000000E+09     0.1000000000E+03
         0.1171000000E+09     0.1000000000E+03
         0.1172000000E+09     0.1000000000E+03
         0.1173000000E+09     0.1000000000E+03
         0.1173000000E+09     0.1000000000E+03
         0.1174000000E+09     0.1000000000E+03
         0.1175000000E+09     0.1000000000E+03
         0.1176000000E+09     0.1000000000E+03
         0.1177000000E+09     0.1000000000E+03
         0.1178000000E+09     0.1000000000E+03
         0.1179000000E+09     0.1000000000E+03
         0.1179000000E+09     0.1000000000E+03
         0.1180000000E+09     0.1000000000E+03
         0.1181000000E+09     0.1000000000E+03
         0.1182000000E+09     0.1000000000E+03
         0.1183000000E+09     0.1000000000E+03
         0.1184000000E+09     0.1000000000E+03
         0.1185000000E+09     0.1000000000E+03
         0.1186000000E+09     0.1000000000E+03
         0.1187000000E+09     0.1000000000E+03
         0.1188000000E+09     0.1000000000E+03
         0.1189000000E+09     0.1000000000E+03
         0.1189000000E+09     0.1000000000E+03
         0.1190000000E+09     0.1000000000E+03
         0.1191000000E+09     0.1000000000E+03
         0.1192000000E+09     0.1000000000E+03
         0.1193000000E+09     0.1000000000E+03
         0.1194000000E+09     0.1000000000E+03
         0.1195000000E+09     0.1000000000E+03
         0.1195000000E+09     0.1000000000E+03
         0.1196000000E+09     0.1000000000E+03
         0.1197000000E+09     0.1000000000E+03
         0.1198000000E+09     0.1000000000E+03
         0.1199000000E+09     0.1000000000E+03
         0.1200000000E+09     0.1000000000E+03
         0.1201000000E+09     0.1000000000E+03
         0.1201000000E+09     0.1000000000E+03
         0.1202000000E+09     0.1000000000E+03
         0.1203000000E+09     0.1000000000E+03
         0.1204000000E+09     0.1000000000E+03
         0.1205000000E+09     0.1000000000E+03
         0.1206000000E+09     0.1000000000E+03
         0.1207000000E+09     0.1000000000E+03
         0.1208000000E+09     0.1000000000E+03
         0.1209000000E+09     0.1000000000E+03
         0.1210000000E+09     0.1000000000E+03
         0.1211000000E+09     0.1000000000E+03
         0.1211000000E+09     0.1000000000E+03
         0.1212000000E+09     0.1000000000E+03
         0.1213000000E+09     0.1000000000E+03
         0.1214000000E+09     0.1000000000E+03
         0.1215000000E+09     0.1000000000E+03
         0.1216000000E+09     0.1000000000E+03
         0.1217000000E+09     0.1000000000E+03
         0.1217000000E+09     0.1000000000E+03
         0.1218000000E+09     0.1000000000E+03
         0.1219000000E+09     0.1000000000E+03
         0.1220000000E+09     0.1000000000E+03
         0.1221000000E+09     0.1000000000E+03
         0.1222000000E+09     0.1000000000E+03
         0.1223000000E+09     0.1000000000E+03
         0.1223000000E+09     0.1000000000E+03
         0.1224000000E+09     0.1000000000E+03
         0.1225000000E+09     0.1000000000E+03
         0.1226000000E+09     0.1000000000E+03
         0.1227000000E+09     0.1000000000E+03
         0.1228000000E+09     0.1000000000E+03
         0.1229000000E+09     0.1000000000E+03
         0.1230000000E+09     0.1000000000E+03
         0.1231000000E+09     0.1000000000E+03
         0.1232000000E+09     0.1000000000E+03
         0.1233000000E+09     0.1000000000E+03
         0.1233000000E+09     0.1000000000E+03
         0.1234000000E+09     0.1000000000E+03
         0.1235000000E+09     0.1000000000E+03
         0.1236000000E+09     0.1000000000E+03
         0.1237000000E+09     0.1000000000E+03
         0.1238000000E+09     0.1000000000E+03
         0.1239000000E+09     0.1000000000E+03
         0.1239000000E+09     0.1000000000E+03
         0.1240000000E+09     0.1000000000E+03
         0.1241000000E+09     0.1000000000E+03
         0.1242000000E+09     0.1000000000E+03
         0.1243000000E+09     0.1000000000E+03
         0.1244000000E+09     0.1000000000E+03
         0.1245000000E+09     0.1000000000E+03
         0.1245000000E+09     0.1000000000E+03
         0.1246000000E+09     0.1000000000E+03
         0.1247000000E+09     0.1000000000E+03
         0.1248000000E+09     0.1000000000E+03
         0.1249000000E+09     0.1000000000E+03
         0.1250000000E+09     0.1000000000E+03
         0.1251000000E+09     0.1000000000E+03
         0.1252000000E+09     0.1000000000E+03
         0.1253000000E+09     0.1000000000E+03
         0.1254000000E+09     0.1000000000E+03
         0.1255000000E+09     0.1000000000E+03
         0.1255000000E+09     0.1000000000E+03
         0.1256000000E+09     0.1000000000E+03
         0.1257000000E+09     0.1000000000E+03
         0.1258000000E+09     0.1000000000E+03
         0.1259000000E+09     0.1000000000E+03
         0.1260000000E+09     0.1000000000E+03



            AREAL INFILTRATION RATE
 READING ON UNIT   19 WITH FORMAT: (10F4.0)            

            1           2           3           4           5           6           7           8           9          10
 ........................................................................................................................
   1   1.0000E-10  2.0000E-10   0.000       0.000       0.000       0.000       0.000       0.000       0.000       0.000    
   2   2.0000E-10  1.0000E-10  2.0000E-10   0.000       0.000      8.0000E-10  8.0000E-10  5.0000E-10   0.000       0.000    
   3    0.000      5.0000E-10  1.0000E-10  1.0000E-10  8.0000E-10  8.0000E-10  5.0000E-10  5.0000E-10   0.000       0.000    
   4   8.0000E-10  5.0000E-10  1.0000E-10  1.0000E-10  1.0000E-10  1.0000E-10  1.0000E-10  1.0000E-10  2.0000E-10   0.000    
   5   8.0000E-10  5.0000E-10  1.0000E-10  1.0000E-10  1.0000E-10  1.0000E-10  1.0000E-10  1.0000E-10  1.0000E-10  1.0000E-10
   6   8.0000E-10  5.0000E-10  5.0000E-10  2.0000E-10  2.0000E-10  1.0000E-10  1.0000E-10  1.0000E-10  1.0000E-10  5.0000E-10
   7   8.0000E-10  5.0000E-10  5.0000E-10  2.0000E-10  2.0000E-10  1.0000E-10  1.0000E-10  2.0000E-10  2.0000E-10   0.000    
   8    0.000      5.0000E-10  5.0000E-10  2.0000E-10  2.0000E-10  1.0000E-10  1.0000E-10  2.0000E-10  5.0000E-10   0.000    
   9    0.000      5.0000E-10  5.0000E-10  2.0000E-10  2.0000E-10  1.0000E-10  1.0000E-10  2.0000E-10  5.0000E-10   0.000    
  10    0.000      5.0000E-10  5.0000E-10  2.0000E-10  2.0000E-10  1.0000E-10  1.0000E-10  2.0000E-10  5.0000E-10  8.0000E-10
  11    0.000      1.0000E-10  1.0000E-10  1.0000E-10  1.0000E-10  1.0000E-10  1.0000E-10  2.0000E-10  5.0000E-10   0.000    
  12   1.0000E-10  1.0000E-10  1.0000E-10  1.0000E-10  1.0000E-10  1.0000E-10  1.0000E-10  1.0000E-10  2.0000E-10   0.000    
  13   1.0000E-10  1.0000E-10  2.0000E-10  2.0000E-10  2.0000E-10  2.0000E-10  2.0000E-10  1.0000E-10  1.0000E-10   0.000    
  14    0.000      2.0000E-10  5.0000E-10  5.0000E-10  5.0000E-10  5.0000E-10  5.0000E-10  2.0000E-10  1.0000E-10   0.000    
  15    0.000       0.000      8.0000E-10  8.0000E-10  8.0000E-10  8.0000E-10   0.000       0.000       0.000       0.000    

                  ET RATE =  1.000000E-08

      ET EXTINCTION DEPTH =  0.500000    

 EXTINCTION WATER CONTENT =  0.200000    

EXTINCTION WATER CONTENT FOR CELL AT ROW     1, COLUMN     1 IS LESS THAN RESIDUAL WATER CONTENT-- SETTING EXTINCTION WATER CONTENT EQUAL TO RESIDUAL WATER CONTENT

EXTINCTION WATER CONTENT FOR CELL AT ROW     1, COLUMN     2 IS LESS THAN RESIDUAL WATER CONTENT-- SETTING EXTINCTION WATER CONTENT EQUAL TO RESIDUAL WATER CONTENT

EXTINCTION WATER CONTENT FOR CELL AT ROW     2, COLUMN     1 IS LESS THAN RESIDUAL WATER CONTENT-- SETTING EXTINCTION WATER CONTENT EQUAL TO RESIDUAL WATER CONTENT

EXTINCTION WATER CONTENT FOR CELL AT ROW     2, COLUMN     2 IS LESS THAN RESIDUAL WATER CONTENT-- SETTING EXTINCTION WATER CONTENT EQUAL TO RESIDUAL WATER CONTENT

EXTINCTION WATER CONTENT FOR CELL AT ROW     2, COLUMN     3 IS LESS THAN RESIDUAL WATER CONTENT-- SETTING EXTINCTION WATER CONTENT EQUAL TO RESIDUAL WATER CONTENT

EXTINCTION WATER CONTENT FOR CELL AT ROW     2, COLUMN     6 IS LESS THAN RESIDUAL WATER CONTENT-- SETTING EXTINCTION WATER CONTENT EQUAL TO RESIDUAL WATER CONTENT

EXTINCTION WATER CONTENT FOR CELL AT ROW     2, COLUMN     7 IS LESS THAN RESIDUAL WATER CONTENT-- SETTING EXTINCTION WATER CONTENT EQUAL TO RESIDUAL WATER CONTENT

EXTINCTION WATER CONTENT FOR CELL AT ROW     2, COLUMN     8 IS LESS THAN RESIDUAL WATER CONTENT-- SETTING EXTINCTION WATER CONTENT EQUAL TO RESIDUAL WATER CONTENT

EXTINCTION WATER CONTENT FOR CELL AT ROW     3, COLUMN     2 IS LESS THAN RESIDUAL WATER CONTENT-- SETTING EXTINCTION WATER CONTENT EQUAL TO RESIDUAL WATER CONTENT

EXTINCTION WATER CONTENT FOR CELL AT ROW     3, COLUMN     3 IS LESS THAN RESIDUAL WATER CONTENT-- SETTING EXTINCTION WATER CONTENT EQUAL TO RESIDUAL WATER CONTENT

EXTINCTION WATER CONTENT FOR CELL AT ROW     3, COLUMN     4 IS LESS THAN RESIDUAL WATER CONTENT-- SETTING EXTINCTION WATER CONTENT EQUAL TO RESIDUAL WATER CONTENT

EXTINCTION WATER CONTENT FOR CELL AT ROW     3, COLUMN     5 IS LESS THAN RESIDUAL WATER CONTENT-- SETTING EXTINCTION WATER CONTENT EQUAL TO RESIDUAL WATER CONTENT

EXTINCTION WATER CONTENT FOR CELL AT ROW     3, COLUMN     6 IS LESS THAN RESIDUAL WATER CONTENT-- SETTING EXTINCTION WATER CONTENT EQUAL TO RESIDUAL WATER CONTENT

EXTINCTION WATER CONTENT FOR CELL AT ROW     3, COLUMN     7 IS LESS THAN RESIDUAL WATER CONTENT-- SETTING EXTINCTION WATER CONTENT EQUAL TO RESIDUAL WATER CONTENT

EXTINCTION WATER CONTENT FOR CELL AT ROW     3, COLUMN     8 IS LESS THAN RESIDUAL WATER CONTENT-- SETTING EXTINCTION WATER CONTENT EQUAL TO RESIDUAL WATER CONTENT

EXTINCTION WATER CONTENT FOR CELL AT ROW     4, COLUMN     1 IS LESS THAN RESIDUAL WATER CONTENT-- SETTING EXTINCTION WATER CONTENT EQUAL TO RESIDUAL WATER CONTENT

EXTINCTION WATER CONTENT FOR CELL AT ROW     4, COLUMN     2 IS LESS THAN RESIDUAL WATER CONTENT-- SETTING EXTINCTION WATER CONTENT EQUAL TO RESIDUAL WATER CONTENT

EXTINCTION WATER CONTENT FOR CELL AT ROW     4, COLUMN     3 IS LESS THAN RESIDUAL WATER CONTENT-- SETTING EXTINCTION WATER CONTENT EQUAL TO RESIDUAL WATER CONTENT

EXTINCTION WATER CONTENT FOR CELL AT ROW     4, COLUMN     4 IS LESS THAN RESIDUAL WATER CONTENT-- SETTING EXTINCTION WATER CONTENT EQUAL TO RESIDUAL WATER CONTENT

EXTINCTION WATER CONTENT FOR CELL AT ROW     4, COLUMN     5 IS LESS THAN RESIDUAL WATER CONTENT-- SETTING EXTINCTION WATER CONTENT EQUAL TO RESIDUAL WATER CONTENT

EXTINCTION WATER CONTENT FOR CELL AT ROW     4, COLUMN     6 IS LESS THAN RESIDUAL WATER CONTENT-- SETTING EXTINCTION WATER CONTENT EQUAL TO RESIDUAL WATER CONTENT

EXTINCTION WATER CONTENT FOR CELL AT ROW     4, COLUMN     7 IS LESS THAN RESIDUAL WATER CONTENT-- SETTING EXTINCTION WATER CONTENT EQUAL TO RESIDUAL WATER CONTENT

EXTINCTION WATER CONTENT FOR CELL AT ROW     4, COLUMN     8 IS LESS THAN RESIDUAL WATER CONTENT-- SETTING EXTINCTION WATER CONTENT EQUAL TO RESIDUAL WATER CONTENT

EXTINCTION WATER CONTENT FOR CELL AT ROW     4, COLUMN     9 IS LESS THAN RESIDUAL WATER CONTENT-- SETTING EXTINCTION WATER CONTENT EQUAL TO RESIDUAL WATER CONTENT

EXTINCTION WATER CONTENT FOR CELL AT ROW     5, COLUMN     1 IS LESS THAN RESIDUAL WATER CONTENT-- SETTING EXTINCTION WATER CONTENT EQUAL TO RESIDUAL WATER CONTENT

EXTINCTION WATER CONTENT FOR CELL AT ROW     5, COLUMN     2 IS LESS THAN RESIDUAL WATER CONTENT-- SETTING EXTINCTION WATER CONTENT EQUAL TO RESIDUAL WATER CONTENT

EXTINCTION WATER CONTENT FOR CELL AT ROW     5, COLUMN     3 IS LESS THAN RESIDUAL WATER CONTENT-- SETTING EXTINCTION WATER CONTENT EQUAL TO RESIDUAL WATER CONTENT

EXTINCTION WATER CONTENT FOR CELL AT ROW     5, COLUMN     4 IS LESS THAN RESIDUAL WATER CONTENT-- SETTING EXTINCTION WATER CONTENT EQUAL TO RESIDUAL WATER CONTENT

EXTINCTION WATER CONTENT FOR CELL AT ROW     5, COLUMN     5 IS LESS THAN RESIDUAL WATER CONTENT-- SETTING EXTINCTION WATER CONTENT EQUAL TO RESIDUAL WATER CONTENT

EXTINCTION WATER CONTENT FOR CELL AT ROW     5, COLUMN     6 IS LESS THAN RESIDUAL WATER CONTENT-- SETTING EXTINCTION WATER CONTENT EQUAL TO RESIDUAL WATER CONTENT

EXTINCTION WATER CONTENT FOR CELL AT ROW     5, COLUMN     7 IS LESS THAN RESIDUAL WATER CONTENT-- SETTING EXTINCTION WATER CONTENT EQUAL TO RESIDUAL WATER CONTENT

EXTINCTION WATER CONTENT FOR CELL AT ROW     5, COLUMN     8 IS LESS THAN RESIDUAL WATER CONTENT-- SETTING EXTINCTION WATER CONTENT EQUAL TO RESIDUAL WATER CONTENT

EXTINCTION WATER CONTENT FOR CELL AT ROW     5, COLUMN     9 IS LESS THAN RESIDUAL WATER CONTENT-- SETTING EXTINCTION WATER CONTENT EQUAL TO RESIDUAL WATER CONTENT

EXTINCTION WATER CONTENT FOR CELL AT ROW     5, COLUMN    10 IS LESS THAN RESIDUAL WATER CONTENT-- SETTING EXTINCTION WATER CONTENT EQUAL TO RESIDUAL WATER CONTENT

EXTINCTION WATER CONTENT FOR CELL AT ROW     6, COLUMN     1 IS LESS THAN RESIDUAL WATER CONTENT-- SETTING EXTINCTION WATER CONTENT EQUAL TO RESIDUAL WATER CONTENT

EXTINCTION WATER CONTENT FOR CELL AT ROW     6, COLUMN     2 IS LESS THAN RESIDUAL WATER CONTENT-- SETTING EXTINCTION WATER CONTENT EQUAL TO RESIDUAL WATER CONTENT

EXTINCTION WATER CONTENT FOR CELL AT ROW     6, COLUMN     3 IS LESS THAN RESIDUAL WATER CONTENT-- SETTING EXTINCTION WATER CONTENT EQUAL TO RESIDUAL WATER CONTENT

EXTINCTION WATER CONTENT FOR CELL AT ROW     6, COLUMN     4 IS LESS THAN RESIDUAL WATER CONTENT-- SETTING EXTINCTION WATER CONTENT EQUAL TO RESIDUAL WATER CONTENT

EXTINCTION WATER CONTENT FOR CELL AT ROW     6, COLUMN     5 IS LESS THAN RESIDUAL WATER CONTENT-- SETTING EXTINCTION WATER CONTENT EQUAL TO RESIDUAL WATER CONTENT

EXTINCTION WATER CONTENT FOR CELL AT ROW     6, COLUMN     6 IS LESS THAN RESIDUAL WATER CONTENT-- SETTING EXTINCTION WATER CONTENT EQUAL TO RESIDUAL WATER CONTENT

EXTINCTION WATER CONTENT FOR CELL AT ROW     6, COLUMN     7 IS LESS THAN RESIDUAL WATER CONTENT-- SETTING EXTINCTION WATER CONTENT EQUAL TO RESIDUAL WATER CONTENT

EXTINCTION WATER CONTENT FOR CELL AT ROW     6, COLUMN     8 IS LESS THAN RESIDUAL WATER CONTENT-- SETTING EXTINCTION WATER CONTENT EQUAL TO RESIDUAL WATER CONTENT

EXTINCTION WATER CONTENT FOR CELL AT ROW     6, COLUMN     9 IS LESS THAN RESIDUAL WATER CONTENT-- SETTING EXTINCTION WATER CONTENT EQUAL TO RESIDUAL WATER CONTENT

EXTINCTION WATER CONTENT FOR CELL AT ROW     6, COLUMN    10 IS LESS THAN RESIDUAL WATER CONTENT-- SETTING EXTINCTION WATER CONTENT EQUAL TO RESIDUAL WATER CONTENT

EXTINCTION WATER CONTENT FOR CELL AT ROW     7, COLUMN     1 IS LESS THAN RESIDUAL WATER CONTENT-- SETTING EXTINCTION WATER CONTENT EQUAL TO RESIDUAL WATER CONTENT

EXTINCTION WATER CONTENT FOR CELL AT ROW     7, COLUMN     2 IS LESS THAN RESIDUAL WATER CONTENT-- SETTING EXTINCTION WATER CONTENT EQUAL TO RESIDUAL WATER CONTENT

EXTINCTION WATER CONTENT FOR CELL AT ROW     7, COLUMN     3 IS LESS THAN RESIDUAL WATER CONTENT-- SETTING EXTINCTION WATER CONTENT EQUAL TO RESIDUAL WATER CONTENT

EXTINCTION WATER CONTENT FOR CELL AT ROW     7, COLUMN     4 IS LESS THAN RESIDUAL WATER CONTENT-- SETTING EXTINCTION WATER CONTENT EQUAL TO RESIDUAL WATER CONTENT

EXTINCTION WATER CONTENT FOR CELL AT ROW     7, COLUMN     5 IS LESS THAN RESIDUAL WATER CONTENT-- SETTING EXTINCTION WATER CONTENT EQUAL TO RESIDUAL WATER CONTENT

EXTINCTION WATER CONTENT FOR CELL AT ROW     7, COLUMN     6 IS LESS THAN RESIDUAL WATER CONTENT-- SETTING EXTINCTION WATER CONTENT EQUAL TO RESIDUAL WATER CONTENT

EXTINCTION WATER CONTENT FOR CELL AT ROW     7, COLUMN     7 IS LESS THAN RESIDUAL WATER CONTENT-- SETTING EXTINCTION WATER CONTENT EQUAL TO RESIDUAL WATER CONTENT

EXTINCTION WATER CONTENT FOR CELL AT ROW     7, COLUMN     8 IS LESS THAN RESIDUAL WATER CONTENT-- SETTING EXTINCTION WATER CONTENT EQUAL TO RESIDUAL WATER CONTENT

EXTINCTION WATER CONTENT FOR CELL AT ROW     7, COLUMN     9 IS LESS THAN RESIDUAL WATER CONTENT-- SETTING EXTINCTION WATER CONTENT EQUAL TO RESIDUAL WATER CONTENT

EXTINCTION WATER CONTENT FOR CELL AT ROW     8, COLUMN     2 IS LESS THAN RESIDUAL WATER CONTENT-- SETTING EXTINCTION WATER CONTENT EQUAL TO RESIDUAL WATER CONTENT

EXTINCTION WATER CONTENT FOR CELL AT ROW     8, COLUMN     3 IS LESS THAN RESIDUAL WATER CONTENT-- SETTING EXTINCTION WATER CONTENT EQUAL TO RESIDUAL WATER CONTENT

EXTINCTION WATER CONTENT FOR CELL AT ROW     8, COLUMN     4 IS LESS THAN RESIDUAL WATER CONTENT-- SETTING EXTINCTION WATER CONTENT EQUAL TO RESIDUAL WATER CONTENT

EXTINCTION WATER CONTENT FOR CELL AT ROW     8, COLUMN     5 IS LESS THAN RESIDUAL WATER CONTENT-- SETTING EXTINCTION WATER CONTENT EQUAL TO RESIDUAL WATER CONTENT

EXTINCTION WATER CONTENT FOR CELL AT ROW     8, COLUMN     6 IS LESS THAN RESIDUAL WATER CONTENT-- SETTING EXTINCTION WATER CONTENT EQUAL TO RESIDUAL WATER CONTENT

EXTINCTION WATER CONTENT FOR CELL AT ROW     8, COLUMN     7 IS LESS THAN RESIDUAL WATER CONTENT-- SETTING EXTINCTION WATER CONTENT EQUAL TO RESIDUAL WATER CONTENT

EXTINCTION WATER CONTENT FOR CELL AT ROW     8, COLUMN     8 IS LESS THAN RESIDUAL WATER CONTENT-- SETTING EXTINCTION WATER CONTENT EQUAL TO RESIDUAL WATER CONTENT

EXTINCTION WATER CONTENT FOR CELL AT ROW     8, COLUMN     9 IS LESS THAN RESIDUAL WATER CONTENT-- SETTING EXTINCTION WATER CONTENT EQUAL TO RESIDUAL WATER CONTENT

EXTINCTION WATER CONTENT FOR CELL AT ROW     9, COLUMN     2 IS LESS THAN RESIDUAL WATER CONTENT-- SETTING EXTINCTION WATER CONTENT EQUAL TO RESIDUAL WATER CONTENT

EXTINCTION WATER CONTENT FOR CELL AT ROW     9, COLUMN     3 IS LESS THAN RESIDUAL WATER CONTENT-- SETTING EXTINCTION WATER CONTENT EQUAL TO RESIDUAL WATER CONTENT

EXTINCTION WATER CONTENT FOR CELL AT ROW     9, COLUMN     4 IS LESS THAN RESIDUAL WATER CONTENT-- SETTING EXTINCTION WATER CONTENT EQUAL TO RESIDUAL WATER CONTENT

EXTINCTION WATER CONTENT FOR CELL AT ROW     9, COLUMN     5 IS LESS THAN RESIDUAL WATER CONTENT-- SETTING EXTINCTION WATER CONTENT EQUAL TO RESIDUAL WATER CONTENT

EXTINCTION WATER CONTENT FOR CELL AT ROW     9, COLUMN     6 IS LESS THAN RESIDUAL WATER CONTENT-- SETTING EXTINCTION WATER CONTENT EQUAL TO RESIDUAL WATER CONTENT

EXTINCTION WATER CONTENT FOR CELL AT ROW     9, COLUMN     7 IS LESS THAN RESIDUAL WATER CONTENT-- SETTING EXTINCTION WATER CONTENT EQUAL TO RESIDUAL WATER CONTENT

EXTINCTION WATER CONTENT FOR CELL AT ROW     9, COLUMN     8 IS LESS THAN RESIDUAL WATER CONTENT-- SETTING EXTINCTION WATER CONTENT EQUAL TO RESIDUAL WATER CONTENT

EXTINCTION WATER CONTENT FOR CELL AT ROW     9, COLUMN     9 IS LESS THAN RESIDUAL WATER CONTENT-- SETTING EXTINCTION WATER CONTENT EQUAL TO RESIDUAL WATER CONTENT

EXTINCTION WATER CONTENT FOR CELL AT ROW    10, COLUMN     2 IS LESS THAN RESIDUAL WATER CONTENT-- SETTING EXTINCTION WATER CONTENT EQUAL TO RESIDUAL WATER CONTENT

EXTINCTION WATER CONTENT FOR CELL AT ROW    10, COLUMN     3 IS LESS THAN RESIDUAL WATER CONTENT-- SETTING EXTINCTION WATER CONTENT EQUAL TO RESIDUAL WATER CONTENT

EXTINCTION WATER CONTENT FOR CELL AT ROW    10, COLUMN     4 IS LESS THAN RESIDUAL WATER CONTENT-- SETTING EXTINCTION WATER CONTENT EQUAL TO RESIDUAL WATER CONTENT

EXTINCTION WATER CONTENT FOR CELL AT ROW    10, COLUMN     5 IS LESS THAN RESIDUAL WATER CONTENT-- SETTING EXTINCTION WATER CONTENT EQUAL TO RESIDUAL WATER CONTENT

EXTINCTION WATER CONTENT FOR CELL AT ROW    10, COLUMN     6 IS LESS THAN RESIDUAL WATER CONTENT-- SETTING EXTINCTION WATER CONTENT EQUAL TO RESIDUAL WATER CONTENT

EXTINCTION WATER CONTENT FOR CELL AT ROW    10, COLUMN     7 IS LESS THAN RESIDUAL WATER CONTENT-- SETTING EXTINCTION WATER CONTENT EQUAL TO RESIDUAL WATER CONTENT

EXTINCTION WATER CONTENT FOR CELL AT ROW    10, COLUMN     8 IS LESS THAN RESIDUAL WATER CONTENT-- SETTING EXTINCTION WATER CONTENT EQUAL TO RESIDUAL WATER CONTENT

EXTINCTION WATER CONTENT FOR CELL AT ROW    10, COLUMN     9 IS LESS THAN RESIDUAL WATER CONTENT-- SETTING EXTINCTION WATER CONTENT EQUAL TO RESIDUAL WATER CONTENT

EXTINCTION WATER CONTENT FOR CELL AT ROW    10, COLUMN    10 IS LESS THAN RESIDUAL WATER CONTENT-- SETTING EXTINCTION WATER CONTENT EQUAL TO RESIDUAL WATER CONTENT

EXTINCTION WATER CONTENT FOR CELL AT ROW    11, COLUMN     2 IS LESS THAN RESIDUAL WATER CONTENT-- SETTING EXTINCTION WATER CONTENT EQUAL TO RESIDUAL WATER CONTENT

EXTINCTION WATER CONTENT FOR CELL AT ROW    11, COLUMN     3 IS LESS THAN RESIDUAL WATER CONTENT-- SETTING EXTINCTION WATER CONTENT EQUAL TO RESIDUAL WATER CONTENT

EXTINCTION WATER CONTENT FOR CELL AT ROW    11, COLUMN     4 IS LESS THAN RESIDUAL WATER CONTENT-- SETTING EXTINCTION WATER CONTENT EQUAL TO RESIDUAL WATER CONTENT

EXTINCTION WATER CONTENT FOR CELL AT ROW    11, COLUMN     5 IS LESS THAN RESIDUAL WATER CONTENT-- SETTING EXTINCTION WATER CONTENT EQUAL TO RESIDUAL WATER CONTENT

EXTINCTION WATER CONTENT FOR CELL AT ROW    11, COLUMN     6 IS LESS THAN RESIDUAL WATER CONTENT-- SETTING EXTINCTION WATER CONTENT EQUAL TO RESIDUAL WATER CONTENT

EXTINCTION WATER CONTENT FOR CELL AT ROW    11, COLUMN     7 IS LESS THAN RESIDUAL WATER CONTENT-- SETTING EXTINCTION WATER CONTENT EQUAL TO RESIDUAL WATER CONTENT

EXTINCTION WATER CONTENT FOR CELL AT ROW    11, COLUMN     8 IS LESS THAN RESIDUAL WATER CONTENT-- SETTING EXTINCTION WATER CONTENT EQUAL TO RESIDUAL WATER CONTENT

EXTINCTION WATER CONTENT FOR CELL AT ROW    11, COLUMN     9 IS LESS THAN RESIDUAL WATER CONTENT-- SETTING EXTINCTION WATER CONTENT EQUAL TO RESIDUAL WATER CONTENT

EXTINCTION WATER CONTENT FOR CELL AT ROW    12, COLUMN     1 IS LESS THAN RESIDUAL WATER CONTENT-- SETTING EXTINCTION WATER CONTENT EQUAL TO RESIDUAL WATER CONTENT

EXTINCTION WATER CONTENT FOR CELL AT ROW    12, COLUMN     2 IS LESS THAN RESIDUAL WATER CONTENT-- SETTING EXTINCTION WATER CONTENT EQUAL TO RESIDUAL WATER CONTENT

EXTINCTION WATER CONTENT FOR CELL AT ROW    12, COLUMN     3 IS LESS THAN RESIDUAL WATER CONTENT-- SETTING EXTINCTION WATER CONTENT EQUAL TO RESIDUAL WATER CONTENT

EXTINCTION WATER CONTENT FOR CELL AT ROW    12, COLUMN     4 IS LESS THAN RESIDUAL WATER CONTENT-- SETTING EXTINCTION WATER CONTENT EQUAL TO RESIDUAL WATER CONTENT

EXTINCTION WATER CONTENT FOR CELL AT ROW    12, COLUMN     5 IS LESS THAN RESIDUAL WATER CONTENT-- SETTING EXTINCTION WATER CONTENT EQUAL TO RESIDUAL WATER CONTENT

EXTINCTION WATER CONTENT FOR CELL AT ROW    12, COLUMN     6 IS LESS THAN RESIDUAL WATER CONTENT-- SETTING EXTINCTION WATER CONTENT EQUAL TO RESIDUAL WATER CONTENT

EXTINCTION WATER CONTENT FOR CELL AT ROW    12, COLUMN     7 IS LESS THAN RESIDUAL WATER CONTENT-- SETTING EXTINCTION WATER CONTENT EQUAL TO RESIDUAL WATER CONTENT

EXTINCTION WATER CONTENT FOR CELL AT ROW    12, COLUMN     8 IS LESS THAN RESIDUAL WATER CONTENT-- SETTING EXTINCTION WATER CONTENT EQUAL TO RESIDUAL WATER CONTENT

EXTINCTION WATER CONTENT FOR CELL AT ROW    12, COLUMN     9 IS LESS THAN RESIDUAL WATER CONTENT-- SETTING EXTINCTION WATER CONTENT EQUAL TO RESIDUAL WATER CONTENT

EXTINCTION WATER CONTENT FOR CELL AT ROW    13, COLUMN     1 IS LESS THAN RESIDUAL WATER CONTENT-- SETTING EXTINCTION WATER CONTENT EQUAL TO RESIDUAL WATER CONTENT

EXTINCTION WATER CONTENT FOR CELL AT ROW    13, COLUMN     2 IS LESS THAN RESIDUAL WATER CONTENT-- SETTING EXTINCTION WATER CONTENT EQUAL TO RESIDUAL WATER CONTENT

EXTINCTION WATER CONTENT FOR CELL AT ROW    13, COLUMN     3 IS LESS THAN RESIDUAL WATER CONTENT-- SETTING EXTINCTION WATER CONTENT EQUAL TO RESIDUAL WATER CONTENT

EXTINCTION WATER CONTENT FOR CELL AT ROW    13, COLUMN     4 IS LESS THAN RESIDUAL WATER CONTENT-- SETTING EXTINCTION WATER CONTENT EQUAL TO RESIDUAL WATER CONTENT

EXTINCTION WATER CONTENT FOR CELL AT ROW    13, COLUMN     5 IS LESS THAN RESIDUAL WATER CONTENT-- SETTING EXTINCTION WATER CONTENT EQUAL TO RESIDUAL WATER CONTENT

EXTINCTION WATER CONTENT FOR CELL AT ROW    13, COLUMN     6 IS LESS THAN RESIDUAL WATER CONTENT-- SETTING EXTINCTION WATER CONTENT EQUAL TO RESIDUAL WATER CONTENT

EXTINCTION WATER CONTENT FOR CELL AT ROW    13, COLUMN     7 IS LESS THAN RESIDUAL WATER CONTENT-- SETTING EXTINCTION WATER CONTENT EQUAL TO RESIDUAL WATER CONTENT

EXTINCTION WATER CONTENT FOR CELL AT ROW    13, COLUMN     8 IS LESS THAN RESIDUAL WATER CONTENT-- SETTING EXTINCTION WATER CONTENT EQUAL TO RESIDUAL WATER CONTENT

EXTINCTION WATER CONTENT FOR CELL AT ROW    13, COLUMN     9 IS LESS THAN RESIDUAL WATER CONTENT-- SETTING EXTINCTION WATER CONTENT EQUAL TO RESIDUAL WATER CONTENT

EXTINCTION WATER CONTENT FOR CELL AT ROW    14, COLUMN     2 IS LESS THAN RESIDUAL WATER CONTENT-- SETTING EXTINCTION WATER CONTENT EQUAL TO RESIDUAL WATER CONTENT

EXTINCTION WATER CONTENT FOR CELL AT ROW    14, COLUMN     3 IS LESS THAN RESIDUAL WATER CONTENT-- SETTING EXTINCTION WATER CONTENT EQUAL TO RESIDUAL WATER CONTENT

EXTINCTION WATER CONTENT FOR CELL AT ROW    14, COLUMN     4 IS LESS THAN RESIDUAL WATER CONTENT-- SETTING EXTINCTION WATER CONTENT EQUAL TO RESIDUAL WATER CONTENT

EXTINCTION WATER CONTENT FOR CELL AT ROW    14, COLUMN     5 IS LESS THAN RESIDUAL WATER CONTENT-- SETTING EXTINCTION WATER CONTENT EQUAL TO RESIDUAL WATER CONTENT

EXTINCTION WATER CONTENT FOR CELL AT ROW    14, COLUMN     6 IS LESS THAN RESIDUAL WATER CONTENT-- SETTING EXTINCTION WATER CONTENT EQUAL TO RESIDUAL WATER CONTENT

EXTINCTION WATER CONTENT FOR CELL AT ROW    14, COLUMN     7 IS LESS THAN RESIDUAL WATER CONTENT-- SETTING EXTINCTION WATER CONTENT EQUAL TO RESIDUAL WATER CONTENT

EXTINCTION WATER CONTENT FOR CELL AT ROW    14, COLUMN     8 IS LESS THAN RESIDUAL WATER CONTENT-- SETTING EXTINCTION WATER CONTENT EQUAL TO RESIDUAL WATER CONTENT

EXTINCTION WATER CONTENT FOR CELL AT ROW    14, COLUMN     9 IS LESS THAN RESIDUAL WATER CONTENT-- SETTING EXTINCTION WATER CONTENT EQUAL TO RESIDUAL WATER CONTENT

EXTINCTION WATER CONTENT FOR CELL AT ROW    15, COLUMN     3 IS LESS THAN RESIDUAL WATER CONTENT-- SETTING EXTINCTION WATER CONTENT EQUAL TO RESIDUAL WATER CONTENT

EXTINCTION WATER CONTENT FOR CELL AT ROW    15, COLUMN     4 IS LESS THAN RESIDUAL WATER CONTENT-- SETTING EXTINCTION WATER CONTENT EQUAL TO RESIDUAL WATER CONTENT

EXTINCTION WATER CONTENT FOR CELL AT ROW    15, COLUMN     5 IS LESS THAN RESIDUAL WATER CONTENT-- SETTING EXTINCTION WATER CONTENT EQUAL TO RESIDUAL WATER CONTENT

EXTINCTION WATER CONTENT FOR CELL AT ROW    15, COLUMN     6 IS LESS THAN RESIDUAL WATER CONTENT-- SETTING EXTINCTION WATER CONTENT EQUAL TO RESIDUAL WATER CONTENT

       AIR ENTRY PRESSURE =  -1.10000    

            ROOT PRESSURE =  -75.0000    

            ROOT ACTIVITY =   1.00000    
 # AG segment list

 PROCESSING SEGMENT LIST

 FINISHED READING SEGMENT LIST
 # AG well list

 PROCESSING WELL LIST

 LAYER   ROW   COL   MAX STRESS RATE         
 --------------------------------------------
      1      1      6      4      -100.0    
      2      1      6      5      -100.0    
      3      1      7      4      -100.0    
      4      1      7      5      -100.0    
      5      1      8      4      -100.0    
      6      1      8      5      -100.0    

 FINISHED READING WELL LIST
 # AG stress period

      6 WELLS

 PROCESSING AG STRESS PERIOD DATA

 READING AG STRESS PERIOD DATA

 READING IRRIGATION SEGMENT

 READING IRRIGATION WELL

 READING SUPPLEMENTAL WELL

 NO IRRPOND OR REUSING IRRPOND DATA FROM LAST STRESS PERIOD

 END PROCESSING AG STRESS PERIOD DATA OPTIONS
 
 SOLVING FOR HEAD 
                                                   Max.-Head-Change                         Max.-Flux-Residual
  Residual-Control   Outer-Iter.   Inner-Iter.     Column Row Layer    Maximum-Head-Change  Column Row Layer    Maximum-Flux-Residual          L2-NORM 
          0                 1           6             2    2     1      -0.3091902064E+02       3    3    1        -0.3387725593E+01      0.9438782865E+01
          0                 2           6             1    1     1      -0.3160283292E+02       1   13    1        -0.6317714402E+02      0.6341706057E+02
          0                 3           5             1    1     1      -0.1218344574E+01       1   13    1        -0.2090503639E+01      0.2852988538E+01
          0                 4           5             5   13     1      -0.3531913407E+00       5   13    1        -0.5902046470E+00      0.6060818052E+00
          0                 5           4             5   14     1       0.5787723920E-01       5   13    1         0.2547336429E-01      0.4765602283E-01
          0                 6           2             5   14     1      -0.2238284060E-02       5   12    1        -0.2373325674E-02      0.3894923016E-02
          0                 7           1             5   12     1       0.4405428811E-04       5   12    1         0.1191611464E-03      0.1657509654E-03

    ------------------------------------------------
       NWT REQUIRED            7 OUTER ITERATIONS 
       AND A TOTAL OF         29 INNER ITERATIONS.
    ------------------------------------------------

 OUTPUT CONTROL FOR STRESS PERIOD    1   TIME STEP    1
    PRINT BUDGET
    PRINT HEAD FOR ALL LAYERS
    SAVE BUDGET
    SAVE HEAD FOR ALL LAYERS
 UBDSV2 SAVING "   CONSTANT HEAD" ON UNIT 102 AT TIME STEP 1, STRESS PERIOD 1
 UBDSV1 SAVING "FLOW RIGHT FACE " ON UNIT 102 AT TIME STEP 1, STRESS PERIOD 1
 UBDSV1 SAVING "FLOW FRONT FACE " ON UNIT 102 AT TIME STEP 1, STRESS PERIOD 1

  HEAD DEP BOUNDS   PERIOD    1   STEP     1
 BOUNDARY      1   LAYER   1   ROW    13   COL     1   RATE   -0.286536    
 BOUNDARY      2   LAYER   1   ROW    14   COL     9   RATE    0.287755    



 STREAM LISTING     PERIOD      1   STEP        1

 LAYER ROW COL. STREAM  RCH.  FLOW INTO     FLOW TO   FLOW OUT OF   OVRLND.     DIRECT     STREAM       STREAM     STREAM     STREAM   STREAMBED  STREAMBED
                SEG.NO.  NO.  STRM. RCH.    AQUIFER    STRM. RCH.    RUNOFF     PRECIP       ET          HEAD       DEPTH      WIDTH   CONDCTNC.   GRADIENT

   1    1    1     1     1    1.8750E+00  6.5285E-02   1.8097E+00  0.000E+00  0.000E+00  0.000E+00  1.09358E+03  5.296E-01  4.110E+00  1.850E-02  1.177E+00
   1    2    2     1     2    1.8097E+00  1.0002E-01   1.7097E+00  0.000E+00  0.000E+00  0.000E+00  1.08858E+03  5.186E-01  4.061E+00  2.843E-02  1.173E+00
   1    3    3     1     3    1.7097E+00  8.4225E-02   1.6255E+00  0.000E+00  0.000E+00  0.000E+00  1.08292E+03  5.059E-01  4.004E+00  2.402E-02  1.169E+00
   1    3    4     1     4    1.6255E+00  7.6652E-02   1.5488E+00  0.000E+00  0.000E+00  0.000E+00  1.07790E+03  4.946E-01  3.952E+00  2.193E-02  1.165E+00
   1    4    5     2     1    0.0000E+00  0.0000E+00   0.0000E+00  0.000E+00  0.000E+00  0.000E+00  1.07193E+03  0.000E+00  1.200E+01  7.800E-02  1.000E+00
   1    5    6     2     2    0.0000E+00  0.0000E+00   0.0000E+00  0.000E+00  0.000E+00  0.000E+00  1.06651E+03  0.000E+00  1.200E+01  6.000E-02  1.000E+00
   1    6    6     2     3    0.0000E+00  0.0000E+00   0.0000E+00  0.000E+00  0.000E+00  0.000E+00  1.06179E+03  0.000E+00  1.200E+01  6.000E-02  1.000E+00
   1    7    6     2     4    0.0000E+00  0.0000E+00   0.0000E+00  0.000E+00  0.000E+00  0.000E+00  1.05708E+03  0.000E+00  1.200E+01  6.000E-02  1.000E+00
   1    8    6     2     5    0.0000E+00  0.0000E+00   0.0000E+00  0.000E+00  0.000E+00  0.000E+00  1.05236E+03  0.000E+00  1.200E+01  6.000E-02  1.000E+00
   1    3    5     3     1    1.5488E+00  2.8252E-01   1.2663E+00  0.000E+00  0.000E+00  0.000E+00  1.07555E+03  1.909E+00  9.636E+00  7.227E-02  1.955E+00
   1    3    6     3     2    1.2663E+00  2.4905E-01   1.0172E+00  0.000E+00  0.000E+00  0.000E+00  1.07264E+03  1.727E+00  8.909E+00  6.682E-02  1.864E+00
   1    3    7     3     3    1.0172E+00  1.9718E-01   8.2007E-01  0.000E+00  0.000E+00  0.000E+00  1.06987E+03  1.555E+00  8.218E+00  5.547E-02  1.777E+00
   1    4    8     3     4    8.2007E-01  2.2567E-01   5.9440E-01  0.000E+00  0.000E+00  0.000E+00  1.06682E+03  1.364E+00  7.455E+00  6.709E-02  1.682E+00
   1    5    8     3     5    5.9440E-01  1.5790E-01   4.3650E-01  0.000E+00  0.000E+00  0.000E+00  1.06362E+03  1.164E+00  6.655E+00  4.991E-02  1.582E+00
   1    6    8     3     6    4.3650E-01  5.5980E-02   3.8052E-01  0.000E+00  0.000E+00  0.000E+00  1.06158E+03  1.036E+00  6.145E+00  1.844E-02  1.518E+00
   1    5   10     4     1    1.0000E+01  9.0919E-02   9.9091E+00  0.000E+00  0.000E+00  0.000E+00  1.07836E+03  6.368E-01  1.000E+01  2.500E-02  1.212E+00
   1    5    9     4     2    9.9091E+00  1.8158E-01   9.7275E+00  0.000E+00  0.000E+00  0.000E+00  1.07154E+03  6.315E-01  1.000E+01  5.000E-02  1.211E+00
   1    6    8     4     3    9.7275E+00  1.2689E-01   9.6006E+00  0.000E+00  0.000E+00  0.000E+00  1.06381E+03  6.256E-01  1.000E+01  3.500E-02  1.209E+00
   1    6    8     5     1    9.9811E+00  2.2027E-01   9.7609E+00  0.000E+00  0.000E+00  0.000E+00  1.05867E+03  6.686E-01  1.501E+01  6.004E-02  1.223E+00
   1    7    7     5     2    9.7609E+00  2.7078E-01   9.4901E+00  0.000E+00  0.000E+00  0.000E+00  1.05416E+03  6.627E-01  1.479E+01  7.393E-02  1.221E+00
   1    8    7     5     3    9.4901E+00  1.8654E-01   9.3035E+00  0.000E+00  0.000E+00  0.000E+00  1.04991E+03  6.571E-01  1.457E+01  5.101E-02  1.219E+00
   1    8    6     5     4    9.3035E+00  1.3175E-01   9.1718E+00  0.000E+00  0.000E+00  0.000E+00  1.04690E+03  6.532E-01  1.443E+01  3.606E-02  1.218E+00
   1    9    6     6     1    9.1718E+00  2.1985E-01   8.9519E+00  0.000E+00  0.000E+00  0.000E+00  1.04339E+03  6.642E-01  1.200E+01  6.000E-02  1.221E+00
   1   10    7     6     2    8.9519E+00  2.1927E-01   8.7327E+00  0.000E+00  0.000E+00  0.000E+00  1.03884E+03  6.545E-01  1.200E+01  6.000E-02  1.218E+00
   1   11    7     6     3    8.7327E+00  2.1868E-01   8.5140E+00  0.000E+00  0.000E+00  0.000E+00  1.03428E+03  6.447E-01  1.200E+01  6.000E-02  1.215E+00
   1   12    7     6     4    8.5140E+00  2.1809E-01   8.2959E+00  0.000E+00  0.000E+00  0.000E+00  1.02973E+03  6.349E-01  1.200E+01  6.000E-02  1.212E+00
   1   13    7     6     5    8.2959E+00 -6.5708E-02   8.3616E+00  0.000E+00  0.000E+00  0.000E+00  1.02654E+03  6.314E-01  1.200E+01  2.400E-01 -9.126E-02
   1   14    9     7     1    1.5000E+02  1.3651E+00   1.4863E+02  0.000E+00  0.000E+00  0.000E+00  1.03987E+03  2.288E+00  5.529E+01  5.593E-01  8.136E-01
   1   13    8     7     2    1.4863E+02  1.9205E+00   1.4671E+02  0.000E+00  0.000E+00  0.000E+00  1.03478E+03  2.279E+00  5.526E+01  6.148E-01  1.041E+00
   1   13    7     7     3    1.4671E+02  1.6052E+00   1.4511E+02  0.000E+00  0.000E+00  0.000E+00  1.02969E+03  2.269E+00  5.521E+01  5.584E-01  9.582E-01
   1   13    6     8     1    1.5347E+02  9.5026E-01   1.5252E+02  0.000E+00  0.000E+00  0.000E+00  1.02471E+03  2.838E+00  4.115E+01  4.193E-01  7.554E-01
   1   13    5     8     2    1.5252E+02  2.1144E-01   1.5231E+02  0.000E+00  0.000E+00  0.000E+00  1.01846E+03  2.834E+00  4.109E+01  4.187E-01  1.683E-01
   1   13    4     8     3    1.5231E+02 -2.3074E+00   1.5462E+02  0.000E+00  0.000E+00  0.000E+00  1.01222E+03  2.841E+00  4.120E+01  4.198E+00 -1.832E-01
   1   13    3     8     4    1.5462E+02 -3.5750E+00   1.5819E+02  0.000E+00  0.000E+00  0.000E+00  1.00599E+03  2.861E+00  4.149E+01  4.228E+00 -2.819E-01
   1   13    2     8     5    1.5819E+02 -2.5597E+00   1.6075E+02  0.000E+00  0.000E+00  0.000E+00  9.99757E+02  2.882E+00  4.179E+01  4.259E+00 -2.003E-01
   1   13    1     8     6    1.6075E+02 -1.9726E+00   1.6272E+02  0.000E+00  0.000E+00  0.000E+00  9.94773E+02  2.898E+00  4.201E+01  2.569E+00 -2.560E-01
   1    8    6     9     1    0.0000E+00  0.0000E+00   0.0000E+00  0.000E+00  0.000E+00  0.000E+00  1.07875E+03  0.000E+00  4.000E+00  0.000E+00  1.000E+00
   1    8    5     9     2    0.0000E+00  0.0000E+00   0.0000E+00  0.000E+00  0.000E+00  0.000E+00  1.07825E+03  0.000E+00  4.000E+00  0.000E+00  1.000E+00



 UBDSV3 SAVING "           GW ET" ON UNIT  61 AT TIME STEP 1, STRESS PERIOD 1
 UBDSV3 SAVING "    UZF RECHARGE" ON UNIT  61 AT TIME STEP 1, STRESS PERIOD 1
 UBDSV3 SAVING " SURFACE LEAKAGE" ON UNIT  61 AT TIME STEP 1, STRESS PERIOD 1
 UBDSV3 SAVING "       HORT+DUNN" ON UNIT  61 AT TIME STEP 1, STRESS PERIOD 1
 UBDSV3 SAVING "  STORAGE CHANGE" ON UNIT  61 AT TIME STEP 1, STRESS PERIOD 1


UNSATURATED ZONE PACKAGE VOLUMETRIC BUDGET FOR  TIME STEP     1 STRESS PERIOD    1
  ------------------------------------------------------------------------------



     CUMULATIVE VOLUMES      L**3       RATES FOR THIS TIME STEP      L**3/T
     ------------------                 ------------------------

           IN:                                      IN:
           ---                                      ---
        INFILTRATION =       73224.0000          INFILTRATION =           0.8475

          OUT:                                     OUT:
          ----                                     ----
              UZF ET =       0.0000E+00                UZF ET =       0.0000E+00
        UZF RECHARGE =       73224.0000          UZF RECHARGE =           0.8475

            IN - OUT =       0.0000E+00              IN - OUT =       0.0000E+00

          STORAGE:                                 STORAGE:
          --------                                 --------
      STORAGE CHANGE =       0.0000E+00        STORAGE CHANGE =       0.0000E+00

 PERCENT DISCREPANCY IS DIFFERENCE BETWEEN IN-OUT MINUS CHANGE IN STORAGE
 DIVIDED BY THE AVERAGE OF IN AND OUT TIMES 100

 PERCENT DISCREPANCY =           0.00     PERCENT DISCREPANCY =           0.00






 

            AG WELLS      PERIOD    1   STEP   1
 AG WELL      1   LAYER   1   ROW     6   COL     4   RATE     0.00000    
 AG WELL      2   LAYER   1   ROW     6   COL     5   RATE     0.00000    
 AG WELL      3   LAYER   1   ROW     7   COL     4   RATE     0.00000    
 AG WELL      4   LAYER   1   ROW     7   COL     5   RATE     0.00000    
 AG WELL      5   LAYER   1   ROW     8   COL     4   RATE     0.00000    
 AG WELL      6   LAYER   1   ROW     8   COL     5   RATE     0.00000    
 
 

   DIVERSION SEGMENTS     PERIOD    1   STEP   1
 
 

        SW IRRIGATION     PERIOD    1   STEP   1
 
 

        GW IRRIGATION     PERIOD    1   STEP   1
 
1
  VOLUMETRIC BUDGET FOR AGRICULTURAL FIELDS AT  END OF TIME STEP    1, STRESS PERIOD   1
  ------------------------------------------------------------------------------

     CUMULATIVE VOLUMES      L**3       RATES FOR THIS TIME STEP      L**3/T
     ------------------                 ------------------------

           IN:                                      IN:
           ---                                      ---
               AG WELLS  =           0.0000                 AG WELLS  =           0.0000
      DIVERSION SEGMENTS =           0.0000        DIVERSION SEGMENTS =           0.0000
       IRRIGATION PONDS  =           0.0000         IRRIGATION PONDS  =           0.0000
           GW IRRIGATION =           0.0000             GW IRRIGATION =           0.0000
           SW IRRIGATION =           0.0000             SW IRRIGATION =           0.0000
        SYSTEM LOSSES GW =           0.0000          SYSTEM LOSSES GW =           0.0000
        SYSTEM LOSSES SW =           0.0000          SYSTEM LOSSES SW =           0.0000

                TOTAL IN =           0.0000                  TOTAL IN =           0.0000

          OUT:                                     OUT:
          ----                                     ----
               AG WELLS  =           0.0000                 AG WELLS  =           0.0000
      DIVERSION SEGMENTS =           0.0000        DIVERSION SEGMENTS =           0.0000
       IRRIGATION PONDS  =           0.0000         IRRIGATION PONDS  =           0.0000
           GW IRRIGATION =           0.0000             GW IRRIGATION =           0.0000
           SW IRRIGATION =           0.0000             SW IRRIGATION =           0.0000
        SYSTEM LOSSES GW =           0.0000          SYSTEM LOSSES GW =           0.0000
        SYSTEM LOSSES SW =           0.0000          SYSTEM LOSSES SW =           0.0000

               TOTAL OUT =           0.0000                 TOTAL OUT =           0.0000

                IN - OUT =           0.0000                  IN - OUT =           0.0000

     PERCENT DISCREPANCY =           0.00         PERCENT DISCREPANCY =           0.00



1
              HEAD IN LAYER 1 AT END OF TIME STEP 1 IN STRESS PERIOD 1
  ---------------------------------------------------------------------------

           1       2       3       4       5       6       7       8       9      10
 ...................................................................................
   1  1029.26 1028.37 6999.00 6999.00 6999.00 6999.00 6999.00 6999.00 6999.00 6999.00
   2  1028.45 1027.36 1026.88 6999.00 6999.00 1028.30 1028.48 1028.46 6999.00 6999.00
   3  6999.00 1026.66 1026.39 1026.21 1026.77 1027.48 1028.04 1028.04 6999.00 6999.00
   4  1026.25 1026.11 1025.89 1025.72 1025.72 1025.86 1026.44 1027.58 1027.34 6999.00
   5  1025.90 1025.50 1025.30 1025.20 1025.26 1025.43 1025.71 1026.26 1026.91 1027.46
   6  1025.46 1024.92 1024.71 1024.66 1024.75 1024.99 1025.37 1025.92 1026.38 1027.29
   7  1025.06 1024.16 1023.99 1024.01 1024.15 1024.46 1024.94 1025.38 1025.92 6999.00
   8  6999.00 1023.02 1023.05 1023.19 1023.40 1023.81 1024.28 1024.92 1025.60 6999.00
   9  6999.00 1021.31 1021.62 1022.06 1022.44 1023.05 1023.57 1024.31 1025.54 6999.00
  10  6999.00 1018.82 1019.57 1020.57 1021.33 1022.32 1023.23 1024.33 1025.99 1026.64
  11  6999.00 1014.68 1016.10 1018.53 1020.11 1021.81 1023.34 1025.18 1027.44 6999.00
  12  1001.77 1007.67 1011.76 1015.60 1018.78 1021.71 1024.22 1027.74 1030.81 6999.00
  13   995.54 1000.36 1006.83 1012.77 1017.95 1022.45 1026.81 1031.65 1034.50 6999.00
  14  6999.00 1005.73 1008.80 1013.40 1018.06 1022.43 1027.39 1032.95 1037.43 6999.00
  15  6999.00 6999.00 1012.40 1015.08 1018.50 1021.48 6999.00 6999.00 6999.00 6999.00

 HEAD WILL BE SAVED ON UNIT   62 AT END OF TIME STEP    1, STRESS PERIOD    1
1
  VOLUMETRIC BUDGET FOR ENTIRE MODEL AT END OF TIME STEP    1, STRESS PERIOD   1
  ------------------------------------------------------------------------------

     CUMULATIVE VOLUMES      L**3       RATES FOR THIS TIME STEP      L**3/T
     ------------------                 ------------------------

           IN:                                      IN:
           ---                                      ---
             STORAGE     =           0.0000               STORAGE     =           0.0000
       CONSTANT HEAD     =           0.0000         CONSTANT HEAD     =           0.0000
     HEAD DEP BOUNDS     =       24862.0605       HEAD DEP BOUNDS     =           0.2878
      STREAM LEAKAGE     =      832172.8125        STREAM LEAKAGE     =           9.6316
        UZF RECHARGE     =       73223.9531          UZF RECHARGE     =           0.8475
               GW ET     =           0.0000                 GW ET     =           0.0000
     SURFACE LEAKAGE     =           0.0000       SURFACE LEAKAGE     =           0.0000
           AG WELLS      =           0.0000             AG WELLS      =           0.0000

                TOTAL IN =      930258.8125                  TOTAL IN =          10.7669

          OUT:                                     OUT:
          ----                                     ----
             STORAGE     =           0.0000               STORAGE     =           0.0000
       CONSTANT HEAD     =           0.0000         CONSTANT HEAD     =           0.0000
     HEAD DEP BOUNDS     =       24756.7500       HEAD DEP BOUNDS     =           0.2865
      STREAM LEAKAGE     =      905501.8750        STREAM LEAKAGE     =          10.4803
        UZF RECHARGE     =           0.0000          UZF RECHARGE     =           0.0000
               GW ET     =           0.0000                 GW ET     =           0.0000
     SURFACE LEAKAGE     =           0.0000       SURFACE LEAKAGE     =           0.0000
           AG WELLS      =           0.0000             AG WELLS      =           0.0000

               TOTAL OUT =      930258.6250                 TOTAL OUT =          10.7669

                IN - OUT =           0.1875                  IN - OUT =       2.8610E-06

     PERCENT DISCREPANCY =           0.00         PERCENT DISCREPANCY =           0.00






         TIME SUMMARY AT END OF TIME STEP    1 IN STRESS PERIOD    1
                    SECONDS     MINUTES      HOURS       DAYS        YEARS
                    -----------------------------------------------------------
   TIME STEP LENGTH  86400.      1440.0      24.000      1.0000     2.73785E-03
 STRESS PERIOD TIME  86400.      1440.0      24.000      1.0000     2.73785E-03
         TOTAL TIME  86400.      1440.0      24.000      1.0000     2.73785E-03
1
1
                            STRESS PERIOD NO.    2, LENGTH =   2630000.    
                            -----------------------------------------------

                              NUMBER OF TIME STEPS =    30

                               MULTIPLIER FOR DELT =     1.000

                            INITIAL TIME STEP SIZE =   87666.66    

 REUSING NON-PARAMETER GHB CELLS FROM LAST STRESS PERIOD

      2 GHB CELLS

 REUSING STREAM SEGMENT DATA FROM LAST STRESS PERIOD



            AREAL INFILTRATION RATE
 READING ON UNIT   19 WITH FORMAT: (FREE)              

            1           2           3           4           5           6           7           8           9          10
 ........................................................................................................................
   1   1.0000E-10  2.0000E-10   0.000       0.000       0.000       0.000       0.000       0.000       0.000       0.000    
   2   2.0000E-10  1.0000E-10  2.0000E-10   0.000       0.000      8.0000E-10  8.0000E-10  5.0000E-10   0.000       0.000    
   3    0.000      5.0000E-10  1.0000E-10  1.0000E-10  8.0000E-10  8.0000E-10  5.0000E-10  5.0000E-10   0.000       0.000    
   4   8.0000E-10  5.0000E-10  1.0000E-10  1.0000E-10  1.0000E-10  1.0000E-10  1.0000E-10  1.0000E-10  2.0000E-10   0.000    
   5   8.0000E-10  5.0000E-10  1.0000E-10  1.0000E-10  1.0000E-10  1.0000E-10  1.0000E-10  1.0000E-10  1.0000E-10  1.0000E-10
   6   8.0000E-10  5.0000E-10  5.0000E-10  2.0000E-10  2.0000E-10  1.0000E-10  1.0000E-10  1.0000E-10  1.0000E-10  5.0000E-10
   7   8.0000E-10  5.0000E-10  5.0000E-10  2.0000E-10  2.0000E-10  1.0000E-10  1.0000E-10  2.0000E-10  2.0000E-10   0.000    
   8    0.000      5.0000E-10  5.0000E-10  2.0000E-10  2.0000E-10  1.0000E-10  1.0000E-10  2.0000E-10  5.0000E-10   0.000    
   9    0.000      5.0000E-10  5.0000E-10  2.0000E-10  2.0000E-10  1.0000E-10  1.0000E-10  2.0000E-10  5.0000E-10   0.000    
  10    0.000      5.0000E-10  5.0000E-10  2.0000E-10  2.0000E-10  1.0000E-10  1.0000E-10  2.0000E-10  5.0000E-10  8.0000E-10
  11    0.000      1.0000E-10  1.0000E-10  1.0000E-10  1.0000E-10  1.0000E-10  1.0000E-10  2.0000E-10  5.0000E-10   0.000    
  12   1.0000E-10  1.0000E-10  1.0000E-10  1.0000E-10  1.0000E-10  1.0000E-10  1.0000E-10  1.0000E-10  2.0000E-10   0.000    
  13   1.0000E-10  1.0000E-10  2.0000E-10  2.0000E-10  2.0000E-10  2.0000E-10  2.0000E-10  1.0000E-10  1.0000E-10   0.000    
  14    0.000      2.0000E-10  5.0000E-10  5.0000E-10  5.0000E-10  5.0000E-10  5.0000E-10  2.0000E-10  1.0000E-10   0.000    
  15    0.000       0.000      8.0000E-10  8.0000E-10  8.0000E-10  8.0000E-10   0.000       0.000       0.000       0.000    

                  ET RATE =  5.000000E-10

 USING ET EXTINCTION DEPTH FROM PREVIOUS STRESS PERIOD. CURRENT PERIOD IS:       2

 USING EXTINCTION WATER CONTENT FROM PREVIOUS STRESS PERIOD. CURRENT PERIOD IS:       2

 USING AIR ENTRY PRESSURE FROM PREVIOUS STRESS PERIOD. CURRENT PERIOD IS:       2

 USING ROOT PRESSURE HEAD FROM PREVIOUS STRESS PERIOD. CURRENT PERIOD IS:       2

 USING ROOT ACTIVITY FROM PREVIOUS STRESS PERIOD. CURRENT PERIOD IS:       2

 PROCESSING AG STRESS PERIOD DATA

 READING AG STRESS PERIOD DATA

 READING IRRIGATION SEGMENT

 READING IRRIGATION WELL

 READING SUPPLEMENTAL WELL

 NO IRRPOND OR REUSING IRRPOND DATA FROM LAST STRESS PERIOD

 END PROCESSING AG STRESS PERIOD DATA OPTIONS
 
 SOLVING FOR HEAD 
                                                   Max.-Head-Change                         Max.-Flux-Residual
  Residual-Control   Outer-Iter.   Inner-Iter.     Column Row Layer    Maximum-Head-Change  Column Row Layer    Maximum-Flux-Residual          L2-NORM 
          0                 1           2             5    4     1       0.4971666878E-02       5    4    1         0.2692751490E+00      0.5607047489E+00
          0                 2           2             5    4     1      -0.4836091039E-03       5    4    1        -0.2692761807E-01      0.5590423108E-01
          0                 3           1             5    4     1       0.3293196819E-04       5    4    1         0.1884933108E-02      0.3898620859E-02

    ------------------------------------------------
       NWT REQUIRED            3 OUTER ITERATIONS 
       AND A TOTAL OF          5 INNER ITERATIONS.
    ------------------------------------------------

 OUTPUT CONTROL FOR STRESS PERIOD    2   TIME STEP    1
    PRINT BUDGET
    PRINT HEAD FOR ALL LAYERS
    SAVE BUDGET
 UBDSV1 SAVING "         STORAGE" ON UNIT 102 AT TIME STEP 1, STRESS PERIOD 2
 UBDSV2 SAVING "   CONSTANT HEAD" ON UNIT 102 AT TIME STEP 1, STRESS PERIOD 2
 UBDSV1 SAVING "FLOW RIGHT FACE " ON UNIT 102 AT TIME STEP 1, STRESS PERIOD 2
 UBDSV1 SAVING "FLOW FRONT FACE " ON UNIT 102 AT TIME STEP 1, STRESS PERIOD 2

  HEAD DEP BOUNDS   PERIOD    2   STEP     1
 BOUNDARY      1   LAYER   1   ROW    13   COL     1   RATE   -0.286571    
 BOUNDARY      2   LAYER   1   ROW    14   COL     9   RATE    0.287757    



 STREAM LISTING     PERIOD      2   STEP        1

 LAYER ROW COL. STREAM  RCH.  FLOW INTO     FLOW TO   FLOW OUT OF   OVRLND.     DIRECT     STREAM       STREAM     STREAM     STREAM   STREAMBED  STREAMBED
                SEG.NO.  NO.  STRM. RCH.    AQUIFER    STRM. RCH.    RUNOFF     PRECIP       ET          HEAD       DEPTH      WIDTH   CONDCTNC.   GRADIENT

   1    1    1     1     1    8.2500E+00  1.3178E-01   8.1182E+00  0.000E+00  0.000E+00  0.000E+00  1.09389E+03  8.424E-01  7.622E+00  3.430E-02  1.281E+00
   1    2    2     1     2    8.1182E+00  2.0240E-01   7.9158E+00  0.000E+00  0.000E+00  0.000E+00  1.08890E+03  8.367E-01  7.536E+00  5.276E-02  1.279E+00
   1    3    3     1     3    7.9158E+00  1.7099E-01   7.7448E+00  0.000E+00  0.000E+00  0.000E+00  1.08325E+03  8.302E-01  7.440E+00  4.464E-02  1.277E+00
   1    3    4     1     4    7.7448E+00  1.5612E-01   7.5887E+00  0.000E+00  0.000E+00  0.000E+00  1.07823E+03  8.244E-01  7.355E+00  4.082E-02  1.275E+00
   1    4    5     2     1    5.5887E+00  2.7178E-01   5.3169E+00  0.000E+00  0.000E+00  0.000E+00  1.07242E+03  4.843E-01  1.200E+01  7.800E-02  1.161E+00
   1    5    6     2     2    5.3169E+00  2.0828E-01   5.1086E+00  0.000E+00  0.000E+00  0.000E+00  1.06698E+03  4.714E-01  1.200E+01  6.000E-02  1.157E+00
   1    6    6     2     3    5.1086E+00  2.0760E-01   4.9010E+00  0.000E+00  0.000E+00  0.000E+00  1.06225E+03  4.600E-01  1.200E+01  6.000E-02  1.153E+00
   1    7    6     2     4    4.9010E+00  2.0691E-01   4.6941E+00  0.000E+00  0.000E+00  0.000E+00  1.05752E+03  4.485E-01  1.200E+01  6.000E-02  1.149E+00
   1    8    6     2     5    4.6941E+00  2.0621E-01   4.4879E+00  0.000E+00  0.000E+00  0.000E+00  1.05280E+03  4.368E-01  1.200E+01  6.000E-02  1.146E+00
   1    3    5     3     1    2.0000E+00  2.8252E-01   1.7175E+00  0.000E+00  0.000E+00  0.000E+00  1.07555E+03  1.909E+00  9.636E+00  7.227E-02  1.955E+00
   1    3    6     3     2    1.7175E+00  2.4905E-01   1.4684E+00  0.000E+00  0.000E+00  0.000E+00  1.07264E+03  1.727E+00  8.909E+00  6.682E-02  1.864E+00
   1    3    7     3     3    1.4684E+00  1.9718E-01   1.2712E+00  0.000E+00  0.000E+00  0.000E+00  1.06987E+03  1.555E+00  8.218E+00  5.547E-02  1.777E+00
   1    4    8     3     4    1.2712E+00  2.2567E-01   1.0456E+00  0.000E+00  0.000E+00  0.000E+00  1.06682E+03  1.364E+00  7.455E+00  6.709E-02  1.682E+00
   1    5    8     3     5    1.0456E+00  1.5790E-01   8.8768E-01  0.000E+00  0.000E+00  0.000E+00  1.06362E+03  1.164E+00  6.655E+00  4.991E-02  1.582E+00
   1    6    8     3     6    8.8768E-01  5.5980E-02   8.3170E-01  0.000E+00  0.000E+00  0.000E+00  1.06158E+03  1.036E+00  6.145E+00  1.844E-02  1.518E+00
   1    5   10     4     1    1.0000E+01  9.0919E-02   9.9091E+00  0.000E+00  0.000E+00  0.000E+00  1.07836E+03  6.368E-01  1.000E+01  2.500E-02  1.212E+00
   1    5    9     4     2    9.9091E+00  1.8158E-01   9.7275E+00  0.000E+00  0.000E+00  0.000E+00  1.07154E+03  6.315E-01  1.000E+01  5.000E-02  1.211E+00
   1    6    8     4     3    9.7275E+00  1.2689E-01   9.6006E+00  0.000E+00  0.000E+00  0.000E+00  1.06381E+03  6.256E-01  1.000E+01  3.500E-02  1.209E+00
   1    6    8     5     1    1.0432E+01  2.2686E-01   1.0205E+01  0.000E+00  0.000E+00  0.000E+00  1.05868E+03  6.790E-01  1.542E+01  6.166E-02  1.226E+00
   1    7    7     5     2    1.0205E+01  2.7894E-01   9.9265E+00  0.000E+00  0.000E+00  0.000E+00  1.05417E+03  6.732E-01  1.519E+01  7.594E-02  1.224E+00
   1    8    7     5     3    9.9265E+00  1.9221E-01   9.7343E+00  0.000E+00  0.000E+00  0.000E+00  1.04992E+03  6.676E-01  1.497E+01  5.241E-02  1.223E+00
   1    8    6     5     4    9.7343E+00  1.3577E-01   9.5985E+00  0.000E+00  0.000E+00  0.000E+00  1.04691E+03  6.637E-01  1.482E+01  3.706E-02  1.221E+00
   1    9    6     6     1    1.4086E+01  2.3167E-01   1.3855E+01  0.000E+00  0.000E+00  0.000E+00  1.04359E+03  8.612E-01  1.200E+01  6.000E-02  1.287E+00
   1   10    7     6     2    1.3855E+01  2.3116E-01   1.3624E+01  0.000E+00  0.000E+00  0.000E+00  1.03903E+03  8.526E-01  1.200E+01  6.000E-02  1.284E+00
   1   11    7     6     3    1.3624E+01  2.3064E-01   1.3393E+01  0.000E+00  0.000E+00  0.000E+00  1.03448E+03  8.440E-01  1.200E+01  6.000E-02  1.281E+00
   1   12    7     6     4    1.3393E+01  2.3012E-01   1.3163E+01  0.000E+00  0.000E+00  0.000E+00  1.02993E+03  8.353E-01  1.200E+01  6.000E-02  1.278E+00
   1   13    7     6     5    1.3163E+01 -1.7911E-02   1.3181E+01  0.000E+00  0.000E+00  0.000E+00  1.02674E+03  8.313E-01  1.200E+01  2.400E-01 -2.488E-02
   1   14    9     7     1    1.5000E+02  1.3652E+00   1.4863E+02  0.000E+00  0.000E+00  0.000E+00  1.03987E+03  2.288E+00  5.529E+01  5.593E-01  8.136E-01
   1   13    8     7     2    1.4863E+02  1.9205E+00   1.4671E+02  0.000E+00  0.000E+00  0.000E+00  1.03478E+03  2.279E+00  5.526E+01  6.148E-01  1.041E+00
   1   13    7     7     3    1.4671E+02  1.6048E+00   1.4511E+02  0.000E+00  0.000E+00  0.000E+00  1.02969E+03  2.269E+00  5.521E+01  5.584E-01  9.579E-01
   1   13    6     8     1    1.5829E+02  9.7525E-01   1.5732E+02  0.000E+00  0.000E+00  0.000E+00  1.02475E+03  2.871E+00  4.163E+01  4.242E-01  7.663E-01
   1   13    5     8     2    1.5732E+02  2.2782E-01   1.5709E+02  0.000E+00  0.000E+00  0.000E+00  1.01849E+03  2.867E+00  4.157E+01  4.236E-01  1.793E-01
   1   13    4     8     3    1.5709E+02 -2.2030E+00   1.5929E+02  0.000E+00  0.000E+00  0.000E+00  1.01225E+03  2.874E+00  4.167E+01  4.246E+00 -1.729E-01
   1   13    3     8     4    1.5929E+02 -3.4860E+00   1.6278E+02  0.000E+00  0.000E+00  0.000E+00  1.00602E+03  2.893E+00  4.195E+01  4.274E+00 -2.718E-01
   1   13    2     8     5    1.6278E+02 -2.4627E+00   1.6524E+02  0.000E+00  0.000E+00  0.000E+00  9.99788E+02  2.913E+00  4.223E+01  4.304E+00 -1.907E-01
   1   13    1     8     6    1.6524E+02 -1.9181E+00   1.6716E+02  0.000E+00  0.000E+00  0.000E+00  9.94802E+02  2.927E+00  4.245E+01  2.595E+00 -2.464E-01
   1    8    6     9     1    0.0000E+00  0.0000E+00   0.0000E+00  0.000E+00  0.000E+00  0.000E+00  1.07875E+03  0.000E+00  4.000E+00  0.000E+00  1.000E+00
   1    8    5     9     2    0.0000E+00  0.0000E+00   0.0000E+00  0.000E+00  0.000E+00  0.000E+00  1.07825E+03  0.000E+00  4.000E+00  0.000E+00  1.000E+00



 UBDSV3 SAVING "           GW ET" ON UNIT  61 AT TIME STEP 1, STRESS PERIOD 2
 UBDSV3 SAVING "    UZF RECHARGE" ON UNIT  61 AT TIME STEP 1, STRESS PERIOD 2
 UBDSV3 SAVING " SURFACE LEAKAGE" ON UNIT  61 AT TIME STEP 1, STRESS PERIOD 2
 UBDSV3 SAVING "       HORT+DUNN" ON UNIT  61 AT TIME STEP 1, STRESS PERIOD 2
 UBDSV3 SAVING "  STORAGE CHANGE" ON UNIT  61 AT TIME STEP 1, STRESS PERIOD 2


UNSATURATED ZONE PACKAGE VOLUMETRIC BUDGET FOR  TIME STEP     1 STRESS PERIOD    2
  ------------------------------------------------------------------------------



     CUMULATIVE VOLUMES      L**3       RATES FOR THIS TIME STEP      L**3/T
     ------------------                 ------------------------

           IN:                                      IN:
           ---                                      ---
        INFILTRATION =      147521.4958          INFILTRATION =           0.8475

          OUT:                                     OUT:
          ----                                     ----
              UZF ET =       65735.6246                UZF ET =           0.7498
        UZF RECHARGE =       73224.0000          UZF RECHARGE =       0.0000E+00

            IN - OUT =        8561.8711              IN - OUT =       9.7664E-02

          STORAGE:                                 STORAGE:
          --------                                 --------
      STORAGE CHANGE =        8561.8722        STORAGE CHANGE =       9.7664E-02

 PERCENT DISCREPANCY IS DIFFERENCE BETWEEN IN-OUT MINUS CHANGE IN STORAGE
 DIVIDED BY THE AVERAGE OF IN AND OUT TIMES 100

 PERCENT DISCREPANCY =           0.00     PERCENT DISCREPANCY =           0.00






 

            AG WELLS      PERIOD    2   STEP   1
 AG WELL      1   LAYER   1   ROW     6   COL     4   RATE     0.00000    
 AG WELL      2   LAYER   1   ROW     6   COL     5   RATE     0.00000    
 AG WELL      3   LAYER   1   ROW     7   COL     4   RATE     0.00000    
 AG WELL      4   LAYER   1   ROW     7   COL     5   RATE     0.00000    
 AG WELL      5   LAYER   1   ROW     8   COL     4   RATE     0.00000    
 AG WELL      6   LAYER   1   ROW     8   COL     5   RATE     0.00000    
 
 

   DIVERSION SEGMENTS     PERIOD    2   STEP   1
 
 

        SW IRRIGATION     PERIOD    2   STEP   1
 
 

        GW IRRIGATION     PERIOD    2   STEP   1
 
1
  VOLUMETRIC BUDGET FOR AGRICULTURAL FIELDS AT  END OF TIME STEP    1, STRESS PERIOD   2
  ------------------------------------------------------------------------------

     CUMULATIVE VOLUMES      L**3       RATES FOR THIS TIME STEP      L**3/T
     ------------------                 ------------------------

           IN:                                      IN:
           ---                                      ---
               AG WELLS  =           0.0000                 AG WELLS  =           0.0000
      DIVERSION SEGMENTS =           0.0000        DIVERSION SEGMENTS =           0.0000
       IRRIGATION PONDS  =           0.0000         IRRIGATION PONDS  =           0.0000
           GW IRRIGATION =           0.0000             GW IRRIGATION =           0.0000
           SW IRRIGATION =           0.0000             SW IRRIGATION =           0.0000
        SYSTEM LOSSES GW =           0.0000          SYSTEM LOSSES GW =           0.0000
        SYSTEM LOSSES SW =           0.0000          SYSTEM LOSSES SW =           0.0000

                TOTAL IN =           0.0000                  TOTAL IN =           0.0000

          OUT:                                     OUT:
          ----                                     ----
               AG WELLS  =           0.0000                 AG WELLS  =           0.0000
      DIVERSION SEGMENTS =           0.0000        DIVERSION SEGMENTS =           0.0000
       IRRIGATION PONDS  =           0.0000         IRRIGATION PONDS  =           0.0000
           GW IRRIGATION =           0.0000             GW IRRIGATION =           0.0000
           SW IRRIGATION =           0.0000             SW IRRIGATION =           0.0000
        SYSTEM LOSSES GW =           0.0000          SYSTEM LOSSES GW =           0.0000
        SYSTEM LOSSES SW =           0.0000          SYSTEM LOSSES SW =           0.0000

               TOTAL OUT =           0.0000                 TOTAL OUT =           0.0000

                IN - OUT =           0.0000                  IN - OUT =           0.0000

     PERCENT DISCREPANCY =           0.00         PERCENT DISCREPANCY =           0.00



1
              HEAD IN LAYER 1 AT END OF TIME STEP 1 IN STRESS PERIOD 2
  ---------------------------------------------------------------------------

           1       2       3       4       5       6       7       8       9      10
 ...................................................................................
   1  1029.26 1028.36 6999.00 6999.00 6999.00 6999.00 6999.00 6999.00 6999.00 6999.00
   2  1028.45 1027.36 1026.88 6999.00 6999.00 1028.30 1028.48 1028.46 6999.00 6999.00
   3  6999.00 1026.66 1026.39 1026.21 1026.77 1027.48 1028.04 1028.04 6999.00 6999.00
   4  1026.25 1026.11 1025.89 1025.72 1025.72 1025.86 1026.44 1027.58 1027.34 6999.00
   5  1025.90 1025.50 1025.30 1025.20 1025.26 1025.43 1025.71 1026.26 1026.91 1027.46
   6  1025.46 1024.92 1024.71 1024.66 1024.75 1024.99 1025.37 1025.92 1026.38 1027.29
   7  1025.06 1024.16 1023.99 1024.01 1024.15 1024.46 1024.94 1025.38 1025.92 6999.00
   8  6999.00 1023.02 1023.05 1023.19 1023.40 1023.81 1024.28 1024.92 1025.60 6999.00
   9  6999.00 1021.31 1021.62 1022.06 1022.44 1023.05 1023.57 1024.31 1025.54 6999.00
  10  6999.00 1018.82 1019.57 1020.57 1021.33 1022.32 1023.23 1024.33 1025.99 1026.64
  11  6999.00 1014.68 1016.10 1018.53 1020.11 1021.81 1023.34 1025.18 1027.44 6999.00
  12  1001.77 1007.67 1011.76 1015.60 1018.78 1021.71 1024.22 1027.74 1030.81 6999.00
  13   995.54 1000.36 1006.83 1012.77 1017.95 1022.45 1026.81 1031.65 1034.50 6999.00
  14  6999.00 1005.73 1008.80 1013.40 1018.06 1022.43 1027.39 1032.95 1037.43 6999.00
  15  6999.00 6999.00 1012.40 1015.08 1018.50 1021.48 6999.00 6999.00 6999.00 6999.00
1
  VOLUMETRIC BUDGET FOR ENTIRE MODEL AT END OF TIME STEP    1, STRESS PERIOD   2
  ------------------------------------------------------------------------------

     CUMULATIVE VOLUMES      L**3       RATES FOR THIS TIME STEP      L**3/T
     ------------------                 ------------------------

           IN:                                      IN:
           ---                                      ---
             STORAGE     =       65430.3203               STORAGE     =           0.7464
       CONSTANT HEAD     =           0.0000         CONSTANT HEAD     =           0.0000
     HEAD DEP BOUNDS     =       50088.7578       HEAD DEP BOUNDS     =           0.2878
      STREAM LEAKAGE     =     1812343.5000        STREAM LEAKAGE     =          11.1807
        UZF RECHARGE     =       73223.9531          UZF RECHARGE     =           0.0000
               GW ET     =           0.0000                 GW ET     =           0.0000
     SURFACE LEAKAGE     =           0.0000       SURFACE LEAKAGE     =           0.0000
           AG WELLS      =           0.0000             AG WELLS      =           0.0000

                TOTAL IN =     2001086.6250                  TOTAL IN =          12.2148

          OUT:                                     OUT:
          ----                                     ----
             STORAGE     =      161381.9375               STORAGE     =           1.8409
       CONSTANT HEAD     =           0.0000         CONSTANT HEAD     =           0.0000
     HEAD DEP BOUNDS     =       49879.4922       HEAD DEP BOUNDS     =           0.2866
      STREAM LEAKAGE     =     1789852.0000        STREAM LEAKAGE     =          10.0876
        UZF RECHARGE     =           0.0000          UZF RECHARGE     =           0.0000
               GW ET     =           0.0000                 GW ET     =           0.0000
     SURFACE LEAKAGE     =           0.0000       SURFACE LEAKAGE     =           0.0000
           AG WELLS      =           0.0000             AG WELLS      =           0.0000

               TOTAL OUT =     2001113.5000                 TOTAL OUT =          12.2151

                IN - OUT =         -26.8750                  IN - OUT =      -3.0899E-04

     PERCENT DISCREPANCY =          -0.00         PERCENT DISCREPANCY =          -0.00






         TIME SUMMARY AT END OF TIME STEP    1 IN STRESS PERIOD    2
                    SECONDS     MINUTES      HOURS       DAYS        YEARS
                    -----------------------------------------------------------
   TIME STEP LENGTH  87667.      1461.1      24.352      1.0147     2.77799E-03
 STRESS PERIOD TIME  87667.      1461.1      24.352      1.0147     2.77799E-03
         TOTAL TIME 1.74067E+05  2901.1      48.352      2.0147     5.51584E-03
1
 
 SOLVING FOR HEAD 
                                                   Max.-Head-Change                         Max.-Flux-Residual
  Residual-Control   Outer-Iter.   Inner-Iter.     Column Row Layer    Maximum-Head-Change  Column Row Layer    Maximum-Flux-Residual          L2-NORM 
          0                 1           2             5    4     1       0.4771848866E-02       5    4    1         0.2582579971E+00      0.5403926138E+00
          0                 2           2             5    4     1      -0.4641721319E-03       5    4    1        -0.2582589402E-01      0.5389205072E-01
          0                 3           1             5    4     1       0.3160838333E-04       5    4    1         0.1807812460E-02      0.3758911888E-02

    ------------------------------------------------
       NWT REQUIRED            3 OUTER ITERATIONS 
       AND A TOTAL OF          5 INNER ITERATIONS.
    ------------------------------------------------

 NO OUTPUT CONTROL FOR STRESS PERIOD    2   TIME STEP    2
 
 SOLVING FOR HEAD 
                                                   Max.-Head-Change                         Max.-Flux-Residual
  Residual-Control   Outer-Iter.   Inner-Iter.     Column Row Layer    Maximum-Head-Change  Column Row Layer    Maximum-Flux-Residual          L2-NORM 
          0                 1           2             5    4     1       0.4583646614E-02       5    4    1         0.2478846946E+00      0.5216599243E+00
          0                 2           2             5    4     1      -0.4458650693E-03       5    4    1        -0.2478855577E-01      0.5203508354E-01
          0                 3           1             5    4     1       0.3036174166E-04       5    4    1         0.1735198828E-02      0.3630483295E-02

    ------------------------------------------------
       NWT REQUIRED            3 OUTER ITERATIONS 
       AND A TOTAL OF          5 INNER ITERATIONS.
    ------------------------------------------------

 NO OUTPUT CONTROL FOR STRESS PERIOD    2   TIME STEP    3
 
 SOLVING FOR HEAD 
                                                   Max.-Head-Change                         Max.-Flux-Residual
  Residual-Control   Outer-Iter.   Inner-Iter.     Column Row Layer    Maximum-Head-Change  Column Row Layer    Maximum-Flux-Residual          L2-NORM 
          0                 1           2             5    4     1       0.4406074969E-02       5    4    1         0.2381005685E+00      0.5043754330E+00
          0                 2           2             5    4     1      -0.4285920862E-03       5    4    1        -0.2381013595E-01      0.5032141526E-01
          0                 3           1             5    4     1       0.2918551645E-04       5    4    1         0.1666709469E-02      0.3511958027E-02

    ------------------------------------------------
       NWT REQUIRED            3 OUTER ITERATIONS 
       AND A TOTAL OF          5 INNER ITERATIONS.
    ------------------------------------------------

 NO OUTPUT CONTROL FOR STRESS PERIOD    2   TIME STEP    4
 
 SOLVING FOR HEAD 
                                                   Max.-Head-Change                         Max.-Flux-Residual
  Residual-Control   Outer-Iter.   Inner-Iter.     Column Row Layer    Maximum-Head-Change  Column Row Layer    Maximum-Flux-Residual          L2-NORM 
          0                 1           2             5    4     1       0.4238682244E-02       5    4    1         0.2288806993E+00      0.4884228697E+00
          0                 2           2             5    4     1      -0.4123092439E-03       5    4    1        -0.2288814246E-01      0.4873944241E-01
          0                 3           1             5    4     1       0.2807671661E-04       5    4    1         0.1602169973E-02      0.3402466816E-02

    ------------------------------------------------
       NWT REQUIRED            3 OUTER ITERATIONS 
       AND A TOTAL OF          5 INNER ITERATIONS.
    ------------------------------------------------

 NO OUTPUT CONTROL FOR STRESS PERIOD    2   TIME STEP    5
 
 SOLVING FOR HEAD 
                                                   Max.-Head-Change                         Max.-Flux-Residual
  Residual-Control   Outer-Iter.   Inner-Iter.     Column Row Layer    Maximum-Head-Change  Column Row Layer    Maximum-Flux-Residual          L2-NORM 
          0                 1           2             5    4     1       0.4080580036E-02       5    4    1         0.2201755166E+00      0.4736649229E+00
          0                 2           2             5    4     1      -0.3969301254E-03       5    4    1        -0.2201761830E-01      0.4727546707E-01
          0                 3           1             5    4     1       0.2702945702E-04       5    4    1         0.1541233318E-02      0.3300549705E-02

    ------------------------------------------------
       NWT REQUIRED            3 OUTER ITERATIONS 
       AND A TOTAL OF          5 INNER ITERATIONS.
    ------------------------------------------------

 NO OUTPUT CONTROL FOR STRESS PERIOD    2   TIME STEP    6
 
 SOLVING FOR HEAD 
                                                   Max.-Head-Change                         Max.-Flux-Residual
  Residual-Control   Outer-Iter.   Inner-Iter.     Column Row Layer    Maximum-Head-Change  Column Row Layer    Maximum-Flux-Residual          L2-NORM 
          0                 1           2             5    4     1       0.3931653136E-02       5    4    1         0.2119781742E+00      0.4600295403E+00
          0                 2           2             5    4     1      -0.3824435221E-03       5    4    1        -0.2119787871E-01      0.4592215656E-01
          0                 3           1             5    4     1       0.2604297419E-04       5    4    1         0.1483851583E-02      0.3207476688E-02

    ------------------------------------------------
       NWT REQUIRED            3 OUTER ITERATIONS 
       AND A TOTAL OF          5 INNER ITERATIONS.
    ------------------------------------------------

 NO OUTPUT CONTROL FOR STRESS PERIOD    2   TIME STEP    7
 
 SOLVING FOR HEAD 
                                                   Max.-Head-Change                         Max.-Flux-Residual
  Residual-Control   Outer-Iter.   Inner-Iter.     Column Row Layer    Maximum-Head-Change  Column Row Layer    Maximum-Flux-Residual          L2-NORM 
          0                 1           2             5    4     1       0.3790839201E-02       5    4    1         0.2042304030E+00      0.4474016379E+00
          0                 2           2             5    4     1      -0.3687460954E-03       5    4    1        -0.2042309670E-01      0.4466867068E-01
          0                 3           1             5    4     1       0.2511023086E-04       5    4    1         0.1429616859E-02      0.3120145003E-02

    ------------------------------------------------
       NWT REQUIRED            3 OUTER ITERATIONS 
       AND A TOTAL OF          5 INNER ITERATIONS.
    ------------------------------------------------

 NO OUTPUT CONTROL FOR STRESS PERIOD    2   TIME STEP    8
 
 SOLVING FOR HEAD 
                                                   Max.-Head-Change                         Max.-Flux-Residual
  Residual-Control   Outer-Iter.   Inner-Iter.     Column Row Layer    Maximum-Head-Change  Column Row Layer    Maximum-Flux-Residual          L2-NORM 
          0                 1           2             5    4     1       0.3657864785E-02       5    4    1         0.1969163543E+00      0.4356950680E+00
          0                 2           2             5    4     1      -0.3558112468E-03       5    4    1        -0.1969168741E-01      0.4350628254E-01
          0                 3           1             5    4     1       0.2422941649E-04       5    4    1         0.1378418233E-02      0.3039655930E-02

    ------------------------------------------------
       NWT REQUIRED            3 OUTER ITERATIONS 
       AND A TOTAL OF          5 INNER ITERATIONS.
    ------------------------------------------------

 NO OUTPUT CONTROL FOR STRESS PERIOD    2   TIME STEP    9
 
 SOLVING FOR HEAD 
                                                   Max.-Head-Change                         Max.-Flux-Residual
  Residual-Control   Outer-Iter.   Inner-Iter.     Column Row Layer    Maximum-Head-Change  Column Row Layer    Maximum-Flux-Residual          L2-NORM 
          0                 1           2             5    4     1       0.3532230609E-02       5    4    1         0.1900087706E+00      0.4248474512E+00
          0                 2           2             5    4     1      -0.3435904094E-03       5    4    1        -0.1900092505E-01      0.4242879365E-01
          0                 3           1             5    4     1       0.2339722356E-04       5    4    1         0.1330064849E-02      0.2964925330E-02

    ------------------------------------------------
       NWT REQUIRED            3 OUTER ITERATIONS 
       AND A TOTAL OF          5 INNER ITERATIONS.
    ------------------------------------------------

 NO OUTPUT CONTROL FOR STRESS PERIOD    2   TIME STEP   10
 
 SOLVING FOR HEAD 
                                                   Max.-Head-Change                         Max.-Flux-Residual
  Residual-Control   Outer-Iter.   Inner-Iter.     Column Row Layer    Maximum-Head-Change  Column Row Layer    Maximum-Flux-Residual          L2-NORM 
          0                 1           2             5    4     1       0.3413719440E-02       5    4    1         0.1834948456E+00      0.4147734414E+00
          0                 2           2             5    4     1      -0.3320624520E-03       5    4    1        -0.1834952888E-01      0.4142774901E-01
          0                 3           1             5    4     1       0.2261221382E-04       5    4    1         0.1284467161E-02      0.2895291327E-02

    ------------------------------------------------
       NWT REQUIRED            3 OUTER ITERATIONS 
       AND A TOTAL OF          5 INNER ITERATIONS.
    ------------------------------------------------

 NO OUTPUT CONTROL FOR STRESS PERIOD    2   TIME STEP   11
 
 SOLVING FOR HEAD 
                                                   Max.-Head-Change                         Max.-Flux-Residual
  Residual-Control   Outer-Iter.   Inner-Iter.     Column Row Layer    Maximum-Head-Change  Column Row Layer    Maximum-Flux-Residual          L2-NORM 
          0                 1           2             5    4     1       0.3301407998E-02       5    4    1         0.1773240514E+00      0.4054010488E+00
          0                 2           2             5    4     1      -0.3211375633E-03       5    4    1        -0.1773244614E-01      0.4049601151E-01
          0                 3           1             5    4     1       0.2186826997E-04       5    4    1         0.1241271389E-02      0.2830718806E-02

    ------------------------------------------------
       NWT REQUIRED            3 OUTER ITERATIONS 
       AND A TOTAL OF          5 INNER ITERATIONS.
    ------------------------------------------------

 NO OUTPUT CONTROL FOR STRESS PERIOD    2   TIME STEP   12
 
 SOLVING FOR HEAD 
                                                   Max.-Head-Change                         Max.-Flux-Residual
  Residual-Control   Outer-Iter.   Inner-Iter.     Column Row Layer    Maximum-Head-Change  Column Row Layer    Maximum-Flux-Residual          L2-NORM 
          0                 1           2             5    4     1       0.3195383374E-02       5    4    1         0.1715009104E+00      0.3966851202E+00
          0                 2           2             5    4     1      -0.3108242143E-03       5    4    1        -0.1715012899E-01      0.3962953515E-01
          0                 3           1             5    4     1       0.2116597020E-04       5    4    1         0.1200509189E-02      0.2770438961E-02

    ------------------------------------------------
       NWT REQUIRED            3 OUTER ITERATIONS 
       AND A TOTAL OF          5 INNER ITERATIONS.
    ------------------------------------------------

 NO OUTPUT CONTROL FOR STRESS PERIOD    2   TIME STEP   13
 
 SOLVING FOR HEAD 
                                                   Max.-Head-Change                         Max.-Flux-Residual
  Residual-Control   Outer-Iter.   Inner-Iter.     Column Row Layer    Maximum-Head-Change  Column Row Layer    Maximum-Flux-Residual          L2-NORM 
          0                 1           2             5    4     1       0.3094775221E-02       5    4    1         0.1659775448E+00      0.3885592615E+00
          0                 2           2             5    4     1      -0.3010377445E-03       5    4    1        -0.1659778965E-01      0.3882158098E-01
          0                 3           1             5    4     1       0.2049954892E-04       5    4    1         0.1161845449E-02      0.2713995864E-02

    ------------------------------------------------
       NWT REQUIRED            3 OUTER ITERATIONS 
       AND A TOTAL OF          5 INNER ITERATIONS.
    ------------------------------------------------

 NO OUTPUT CONTROL FOR STRESS PERIOD    2   TIME STEP   14
 
 SOLVING FOR HEAD 
                                                   Max.-Head-Change                         Max.-Flux-Residual
  Residual-Control   Outer-Iter.   Inner-Iter.     Column Row Layer    Maximum-Head-Change  Column Row Layer    Maximum-Flux-Residual          L2-NORM 
          0                 1           2             5    4     1       0.2999970496E-02       5    4    1         0.1607742558E+00      0.3809926144E+00
          0                 2           2             5    4     1      -0.2918157933E-03       5    4    1        -0.1607745822E-01      0.3806886680E-01
          0                 3           1             5    4     1       0.1987156858E-04       5    4    1         0.1125422250E-02      0.2662045226E-02

    ------------------------------------------------
       NWT REQUIRED            3 OUTER ITERATIONS 
       AND A TOTAL OF          5 INNER ITERATIONS.
    ------------------------------------------------

 NO OUTPUT CONTROL FOR STRESS PERIOD    2   TIME STEP   15
 
 SOLVING FOR HEAD 
                                                   Max.-Head-Change                         Max.-Flux-Residual
  Residual-Control   Outer-Iter.   Inner-Iter.     Column Row Layer    Maximum-Head-Change  Column Row Layer    Maximum-Flux-Residual          L2-NORM 
          0                 1           2             5    4     1       0.2909894024E-02       5    4    1         0.1558326222E+00      0.3739167242E+00
          0                 2           2             5    4     1      -0.2830537752E-03       5    4    1        -0.1558329251E-01      0.3736475261E-01
          0                 3           1             5    4     1       0.1927490840E-04       5    4    1         0.1090830656E-02      0.2613179974E-02

    ------------------------------------------------
       NWT REQUIRED            3 OUTER ITERATIONS 
       AND A TOTAL OF          5 INNER ITERATIONS.
    ------------------------------------------------

 NO OUTPUT CONTROL FOR STRESS PERIOD    2   TIME STEP   16
 
 SOLVING FOR HEAD 
                                                   Max.-Head-Change                         Max.-Flux-Residual
  Residual-Control   Outer-Iter.   Inner-Iter.     Column Row Layer    Maximum-Head-Change  Column Row Layer    Maximum-Flux-Residual          L2-NORM 
          0                 1           2             5    4     1       0.2824734754E-02       5    4    1         0.1511623018E+00      0.3673108398E+00
          0                 2           2             5    4     1      -0.2747700697E-03       5    4    1        -0.1511625835E-01      0.3670722980E-01
          0                 3           1             5    4     1       0.1871081966E-04       5    4    1         0.1058138277E-02      0.2567322380E-02

    ------------------------------------------------
       NWT REQUIRED            3 OUTER ITERATIONS 
       AND A TOTAL OF          5 INNER ITERATIONS.
    ------------------------------------------------

 NO OUTPUT CONTROL FOR STRESS PERIOD    2   TIME STEP   17
 
 SOLVING FOR HEAD 
                                                   Max.-Head-Change                         Max.-Flux-Residual
  Residual-Control   Outer-Iter.   Inner-Iter.     Column Row Layer    Maximum-Head-Change  Column Row Layer    Maximum-Flux-Residual          L2-NORM 
          0                 1           2             5    4     1       0.2743946317E-02       5    4    1         0.1467338490E+00      0.3611125834E+00
          0                 2           2             5    4     1      -0.2669115301E-03       5    4    1        -0.1467341113E-01      0.3609012200E-01
          0                 3           1             5    4     1       0.1817568317E-04       5    4    1         0.1027138984E-02      0.2524302280E-02

    ------------------------------------------------
       NWT REQUIRED            3 OUTER ITERATIONS 
       AND A TOTAL OF          5 INNER ITERATIONS.
    ------------------------------------------------

 NO OUTPUT CONTROL FOR STRESS PERIOD    2   TIME STEP   18
 
 SOLVING FOR HEAD 
                                                   Max.-Head-Change                         Max.-Flux-Residual
  Residual-Control   Outer-Iter.   Inner-Iter.     Column Row Layer    Maximum-Head-Change  Column Row Layer    Maximum-Flux-Residual          L2-NORM 
          0                 1           2             5    4     1       0.2667267928E-02       5    4    1         0.1425320160E+00      0.3553067073E+00
          0                 2           2             5    4     1      -0.2594527879E-03       5    4    1        -0.1425322602E-01      0.3551210940E-01
          0                 3           1             5    4     1       0.1766777144E-04       5    4    1         0.9977260479E-03      0.2484093864E-02

    ------------------------------------------------
       NWT REQUIRED            3 OUTER ITERATIONS 
       AND A TOTAL OF          5 INNER ITERATIONS.
    ------------------------------------------------

 NO OUTPUT CONTROL FOR STRESS PERIOD    2   TIME STEP   19
 
 SOLVING FOR HEAD 
                                                   Max.-Head-Change                         Max.-Flux-Residual
  Residual-Control   Outer-Iter.   Inner-Iter.     Column Row Layer    Maximum-Head-Change  Column Row Layer    Maximum-Flux-Residual          L2-NORM 
          0                 1           2             5    4     1       0.2594683874E-02       5    4    1         0.1385563632E+00      0.3498584713E+00
          0                 2           2             5    4     1      -0.2523923151E-03       5    4    1        -0.1385565912E-01      0.3496913352E-01
          0                 3           1             5    4     1       0.1718697963E-04       5    4    1         0.9698963459E-03      0.2446047290E-02

    ------------------------------------------------
       NWT REQUIRED            3 OUTER ITERATIONS 
       AND A TOTAL OF          5 INNER ITERATIONS.
    ------------------------------------------------

 NO OUTPUT CONTROL FOR STRESS PERIOD    2   TIME STEP   20
 
 SOLVING FOR HEAD 
                                                   Max.-Head-Change                         Max.-Flux-Residual
  Residual-Control   Outer-Iter.   Inner-Iter.     Column Row Layer    Maximum-Head-Change  Column Row Layer    Maximum-Flux-Residual          L2-NORM 
          0                 1           2             5    4     1       0.2525710318E-02       5    4    1         0.1347799133E+00      0.3447335523E+00
          0                 2           2             5    4     1      -0.2456830467E-03       5    4    1        -0.1347801258E-01      0.3445867527E-01
          0                 3           1             5    4     1       0.1673010413E-04       5    4    1         0.9434610924E-03      0.2410737664E-02

    ------------------------------------------------
       NWT REQUIRED            3 OUTER ITERATIONS 
       AND A TOTAL OF          5 INNER ITERATIONS.
    ------------------------------------------------

 NO OUTPUT CONTROL FOR STRESS PERIOD    2   TIME STEP   21
 
 SOLVING FOR HEAD 
                                                   Max.-Head-Change                         Max.-Flux-Residual
  Residual-Control   Outer-Iter.   Inner-Iter.     Column Row Layer    Maximum-Head-Change  Column Row Layer    Maximum-Flux-Residual          L2-NORM 
          0                 1           2             5    4     1       0.2460369697E-02       5    4    1         0.1312037428E+00      0.3399136851E+00
          0                 2           2             5    4     1      -0.2393271658E-03       5    4    1        -0.1312039414E-01      0.3397835671E-01
          0                 3           1             5    4     1       0.1629729285E-04       5    4    1         0.9184278090E-03      0.2377290751E-02

    ------------------------------------------------
       NWT REQUIRED            3 OUTER ITERATIONS 
       AND A TOTAL OF          5 INNER ITERATIONS.
    ------------------------------------------------

 NO OUTPUT CONTROL FOR STRESS PERIOD    2   TIME STEP   22
 
 SOLVING FOR HEAD 
                                                   Max.-Head-Change                         Max.-Flux-Residual
  Residual-Control   Outer-Iter.   Inner-Iter.     Column Row Layer    Maximum-Head-Change  Column Row Layer    Maximum-Flux-Residual          L2-NORM 
          0                 1           2             5    4     1       0.2398203527E-02       5    4    1         0.1278028525E+00      0.3353733044E+00
          0                 2           2             5    4     1      -0.2332800742E-03       5    4    1        -0.1278030381E-01      0.3352587781E-01
          0                 3           1             5    4     1       0.1588550905E-04       5    4    1         0.8946214930E-03      0.2345740745E-02

    ------------------------------------------------
       NWT REQUIRED            3 OUTER ITERATIONS 
       AND A TOTAL OF          5 INNER ITERATIONS.
    ------------------------------------------------

 NO OUTPUT CONTROL FOR STRESS PERIOD    2   TIME STEP   23
 
 SOLVING FOR HEAD 
                                                   Max.-Head-Change                         Max.-Flux-Residual
  Residual-Control   Outer-Iter.   Inner-Iter.     Column Row Layer    Maximum-Head-Change  Column Row Layer    Maximum-Flux-Residual          L2-NORM 
          0                 1           2             5    4     1       0.2339267473E-02       5    4    1         0.1245796789E+00      0.3310885217E+00
          0                 2           2             5    4     1      -0.2275471861E-03       5    4    1        -0.1245798528E-01      0.3309851874E-01
          0                 3           1             5    4     1       0.1549512122E-04       5    4    1         0.8720591832E-03      0.2315882109E-02

    ------------------------------------------------
       NWT REQUIRED            3 OUTER ITERATIONS 
       AND A TOTAL OF          5 INNER ITERATIONS.
    ------------------------------------------------

 NO OUTPUT CONTROL FOR STRESS PERIOD    2   TIME STEP   24
 
 SOLVING FOR HEAD 
                                                   Max.-Head-Change                         Max.-Flux-Residual
  Residual-Control   Outer-Iter.   Inner-Iter.     Column Row Layer    Maximum-Head-Change  Column Row Layer    Maximum-Flux-Residual          L2-NORM 
          0                 1           2             5    4     1       0.2283365698E-02       5    4    1         0.1215238906E+00      0.3270408771E+00
          0                 2           2             5    4     1      -0.2221094521E-03       5    4    1        -0.1215240536E-01      0.3269509909E-01
          0                 3           1             5    4     1       0.1512483193E-04       5    4    1         0.8506685831E-03      0.2287891361E-02

    ------------------------------------------------
       NWT REQUIRED            3 OUTER ITERATIONS 
       AND A TOTAL OF          5 INNER ITERATIONS.
    ------------------------------------------------

 NO OUTPUT CONTROL FOR STRESS PERIOD    2   TIME STEP   25
 
 SOLVING FOR HEAD 
                                                   Max.-Head-Change                         Max.-Flux-Residual
  Residual-Control   Outer-Iter.   Inner-Iter.     Column Row Layer    Maximum-Head-Change  Column Row Layer    Maximum-Flux-Residual          L2-NORM 
          0                 1           2             5    4     1       0.2230079846E-02       5    4    1         0.1186123882E+00      0.3232037862E+00
          0                 2           2             5    4     1      -0.2169261767E-03       5    4    1        -0.1186125409E-01      0.3231225773E-01
          0                 3           1             5    4     1       0.1477187043E-04       5    4    1         0.8302879903E-03      0.2261016746E-02

    ------------------------------------------------
       NWT REQUIRED            3 OUTER ITERATIONS 
       AND A TOTAL OF          5 INNER ITERATIONS.
    ------------------------------------------------

 NO OUTPUT CONTROL FOR STRESS PERIOD    2   TIME STEP   26
 
 SOLVING FOR HEAD 
                                                   Max.-Head-Change                         Max.-Flux-Residual
  Residual-Control   Outer-Iter.   Inner-Iter.     Column Row Layer    Maximum-Head-Change  Column Row Layer    Maximum-Flux-Residual          L2-NORM 
          0                 1           2             5    4     1       0.2179256357E-02       5    4    1         0.1158365170E+00      0.3195661512E+00
          0                 2           2             5    4     1      -0.2119824240E-03       5    4    1        -0.1158366605E-01      0.3194946474E-01
          0                 3           1             5    4     1       0.1443521974E-04       5    4    1         0.8108568304E-03      0.2235872331E-02

    ------------------------------------------------
       NWT REQUIRED            3 OUTER ITERATIONS 
       AND A TOTAL OF          5 INNER ITERATIONS.
    ------------------------------------------------

 NO OUTPUT CONTROL FOR STRESS PERIOD    2   TIME STEP   27
 
 SOLVING FOR HEAD 
                                                   Max.-Head-Change                         Max.-Flux-Residual
  Residual-Control   Outer-Iter.   Inner-Iter.     Column Row Layer    Maximum-Head-Change  Column Row Layer    Maximum-Flux-Residual          L2-NORM 
          0                 1           2             5    4     1       0.2131225068E-02       5    4    1         0.1132144787E+00      0.3161253915E+00
          0                 2           2             5    4     1      -0.2073102767E-03       5    4    1        -0.1132146134E-01      0.3160621951E-01
          0                 3           1             5    4     1       0.1411706459E-04       5    4    1         0.7925025059E-03      0.2211814484E-02

    ------------------------------------------------
       NWT REQUIRED            3 OUTER ITERATIONS 
       AND A TOTAL OF          5 INNER ITERATIONS.
    ------------------------------------------------

 NO OUTPUT CONTROL FOR STRESS PERIOD    2   TIME STEP   28
 
 SOLVING FOR HEAD 
                                                   Max.-Head-Change                         Max.-Flux-Residual
  Residual-Control   Outer-Iter.   Inner-Iter.     Column Row Layer    Maximum-Head-Change  Column Row Layer    Maximum-Flux-Residual          L2-NORM 
          0                 1           2             5    4     1       0.2085111076E-02       5    4    1         0.1106979657E+00      0.3128491516E+00
          0                 2           2             5    4     1      -0.2028246317E-03       5    4    1        -0.1106980924E-01      0.3127911464E-01
          0                 3           1             5    4     1       0.1381160957E-04       5    4    1         0.7748868904E-03      0.2188973678E-02

    ------------------------------------------------
       NWT REQUIRED            3 OUTER ITERATIONS 
       AND A TOTAL OF          5 INNER ITERATIONS.
    ------------------------------------------------

 NO OUTPUT CONTROL FOR STRESS PERIOD    2   TIME STEP   29
 
 SOLVING FOR HEAD 
                                                   Max.-Head-Change                         Max.-Flux-Residual
  Residual-Control   Outer-Iter.   Inner-Iter.     Column Row Layer    Maximum-Head-Change  Column Row Layer    Maximum-Flux-Residual          L2-NORM 
          0                 1           2             5    4     1       0.2041517049E-02       5    4    1         0.1083201072E+00      0.3097361467E+00
          0                 2           2             5    4     1      -0.1985841105E-03       5    4    1        -0.1083202265E-01      0.3096867111E-01
          0                 3           1             5    4     1       0.1352284593E-04       5    4    1         0.7582417979E-03      0.2167358548E-02

    ------------------------------------------------
       NWT REQUIRED            3 OUTER ITERATIONS 
       AND A TOTAL OF          5 INNER ITERATIONS.
    ------------------------------------------------

 NO OUTPUT CONTROL FOR STRESS PERIOD    2   TIME STEP   30



 STREAM LISTING     PERIOD      2   STEP       30

 LAYER ROW COL. STREAM  RCH.  FLOW INTO     FLOW TO   FLOW OUT OF   OVRLND.     DIRECT     STREAM       STREAM     STREAM     STREAM   STREAMBED  STREAMBED
                SEG.NO.  NO.  STRM. RCH.    AQUIFER    STRM. RCH.    RUNOFF     PRECIP       ET          HEAD       DEPTH      WIDTH   CONDCTNC.   GRADIENT

   1    1    1     1     1    8.2500E+00  1.3178E-01   8.1182E+00  0.000E+00  0.000E+00  0.000E+00  1.09389E+03  8.424E-01  7.622E+00  3.430E-02  1.281E+00
   1    2    2     1     2    8.1182E+00  2.0240E-01   7.9158E+00  0.000E+00  0.000E+00  0.000E+00  1.08890E+03  8.367E-01  7.536E+00  5.276E-02  1.279E+00
   1    3    3     1     3    7.9158E+00  1.7099E-01   7.7448E+00  0.000E+00  0.000E+00  0.000E+00  1.08325E+03  8.302E-01  7.440E+00  4.464E-02  1.277E+00
   1    3    4     1     4    7.7448E+00  1.5612E-01   7.5887E+00  0.000E+00  0.000E+00  0.000E+00  1.07823E+03  8.244E-01  7.355E+00  4.082E-02  1.275E+00
   1    4    5     2     1    5.5887E+00  2.7178E-01   5.3169E+00  0.000E+00  0.000E+00  0.000E+00  1.07242E+03  4.843E-01  1.200E+01  7.800E-02  1.161E+00
   1    5    6     2     2    5.3169E+00  2.0828E-01   5.1087E+00  0.000E+00  0.000E+00  0.000E+00  1.06698E+03  4.714E-01  1.200E+01  6.000E-02  1.157E+00
   1    6    6     2     3    5.1087E+00  2.0760E-01   4.9010E+00  0.000E+00  0.000E+00  0.000E+00  1.06225E+03  4.600E-01  1.200E+01  6.000E-02  1.153E+00
   1    7    6     2     4    4.9010E+00  2.0691E-01   4.6941E+00  0.000E+00  0.000E+00  0.000E+00  1.05752E+03  4.485E-01  1.200E+01  6.000E-02  1.149E+00
   1    8    6     2     5    4.6941E+00  2.0621E-01   4.4879E+00  0.000E+00  0.000E+00  0.000E+00  1.05280E+03  4.368E-01  1.200E+01  6.000E-02  1.146E+00
   1    3    5     3     1    2.0000E+00  2.8252E-01   1.7175E+00  0.000E+00  0.000E+00  0.000E+00  1.07555E+03  1.909E+00  9.636E+00  7.227E-02  1.955E+00
   1    3    6     3     2    1.7175E+00  2.4905E-01   1.4684E+00  0.000E+00  0.000E+00  0.000E+00  1.07264E+03  1.727E+00  8.909E+00  6.682E-02  1.864E+00
   1    3    7     3     3    1.4684E+00  1.9718E-01   1.2712E+00  0.000E+00  0.000E+00  0.000E+00  1.06987E+03  1.555E+00  8.218E+00  5.547E-02  1.777E+00
   1    4    8     3     4    1.2712E+00  2.2567E-01   1.0456E+00  0.000E+00  0.000E+00  0.000E+00  1.06682E+03  1.364E+00  7.455E+00  6.709E-02  1.682E+00
   1    5    8     3     5    1.0456E+00  1.5790E-01   8.8768E-01  0.000E+00  0.000E+00  0.000E+00  1.06362E+03  1.164E+00  6.655E+00  4.991E-02  1.582E+00
   1    6    8     3     6    8.8768E-01  5.5980E-02   8.3170E-01  0.000E+00  0.000E+00  0.000E+00  1.06158E+03  1.036E+00  6.145E+00  1.844E-02  1.518E+00
   1    5   10     4     1    1.0000E+01  9.0919E-02   9.9091E+00  0.000E+00  0.000E+00  0.000E+00  1.07836E+03  6.368E-01  1.000E+01  2.500E-02  1.212E+00
   1    5    9     4     2    9.9091E+00  1.8158E-01   9.7275E+00  0.000E+00  0.000E+00  0.000E+00  1.07154E+03  6.315E-01  1.000E+01  5.000E-02  1.211E+00
   1    6    8     4     3    9.7275E+00  1.2689E-01   9.6006E+00  0.000E+00  0.000E+00  0.000E+00  1.06381E+03  6.256E-01  1.000E+01  3.500E-02  1.209E+00
   1    6    8     5     1    1.0432E+01  2.2686E-01   1.0205E+01  0.000E+00  0.000E+00  0.000E+00  1.05868E+03  6.790E-01  1.542E+01  6.166E-02  1.226E+00
   1    7    7     5     2    1.0205E+01  2.7894E-01   9.9265E+00  0.000E+00  0.000E+00  0.000E+00  1.05417E+03  6.732E-01  1.519E+01  7.594E-02  1.224E+00
   1    8    7     5     3    9.9265E+00  1.9221E-01   9.7343E+00  0.000E+00  0.000E+00  0.000E+00  1.04992E+03  6.676E-01  1.497E+01  5.241E-02  1.223E+00
   1    8    6     5     4    9.7343E+00  1.3577E-01   9.5985E+00  0.000E+00  0.000E+00  0.000E+00  1.04691E+03  6.637E-01  1.482E+01  3.706E-02  1.221E+00
   1    9    6     6     1    1.4086E+01  2.3167E-01   1.3855E+01  0.000E+00  0.000E+00  0.000E+00  1.04359E+03  8.612E-01  1.200E+01  6.000E-02  1.287E+00
   1   10    7     6     2    1.3855E+01  2.3116E-01   1.3624E+01  0.000E+00  0.000E+00  0.000E+00  1.03903E+03  8.526E-01  1.200E+01  6.000E-02  1.284E+00
   1   11    7     6     3    1.3624E+01  2.3064E-01   1.3393E+01  0.000E+00  0.000E+00  0.000E+00  1.03448E+03  8.440E-01  1.200E+01  6.000E-02  1.281E+00
   1   12    7     6     4    1.3393E+01  2.3012E-01   1.3163E+01  0.000E+00  0.000E+00  0.000E+00  1.02993E+03  8.353E-01  1.200E+01  6.000E-02  1.278E+00
   1   13    7     6     5    1.3163E+01 -2.0977E-02   1.3184E+01  0.000E+00  0.000E+00  0.000E+00  1.02674E+03  8.314E-01  1.200E+01  2.400E-01 -2.913E-02
   1   14    9     7     1    1.5000E+02  1.3658E+00   1.4863E+02  0.000E+00  0.000E+00  0.000E+00  1.03987E+03  2.288E+00  5.529E+01  5.593E-01  8.140E-01
   1   13    8     7     2    1.4863E+02  1.9203E+00   1.4671E+02  0.000E+00  0.000E+00  0.000E+00  1.03478E+03  2.279E+00  5.526E+01  6.148E-01  1.041E+00
   1   13    7     7     3    1.4671E+02  1.5976E+00   1.4512E+02  0.000E+00  0.000E+00  0.000E+00  1.02969E+03  2.270E+00  5.521E+01  5.584E-01  9.537E-01
   1   13    6     8     1    1.5830E+02  9.7214E-01   1.5733E+02  0.000E+00  0.000E+00  0.000E+00  1.02475E+03  2.871E+00  4.163E+01  4.242E-01  7.639E-01
   1   13    5     8     2    1.5733E+02  2.2507E-01   1.5710E+02  0.000E+00  0.000E+00  0.000E+00  1.01849E+03  2.867E+00  4.157E+01  4.236E-01  1.771E-01
   1   13    4     8     3    1.5710E+02 -2.2709E+00   1.5937E+02  0.000E+00  0.000E+00  0.000E+00  1.01225E+03  2.874E+00  4.167E+01  4.246E+00 -1.783E-01
   1   13    3     8     4    1.5937E+02 -3.5514E+00   1.6293E+02  0.000E+00  0.000E+00  0.000E+00  1.00602E+03  2.894E+00  4.196E+01  4.276E+00 -2.769E-01
   1   13    2     8     5    1.6293E+02 -2.5395E+00   1.6546E+02  0.000E+00  0.000E+00  0.000E+00  9.99789E+02  2.914E+00  4.225E+01  4.306E+00 -1.966E-01
   1   13    1     8     6    1.6546E+02 -1.9547E+00   1.6742E+02  0.000E+00  0.000E+00  0.000E+00  9.94804E+02  2.929E+00  4.247E+01  2.597E+00 -2.509E-01
   1    8    6     9     1    0.0000E+00  0.0000E+00   0.0000E+00  0.000E+00  0.000E+00  0.000E+00  1.07875E+03  0.000E+00  4.000E+00  0.000E+00  1.000E+00
   1    8    5     9     2    0.0000E+00  0.0000E+00   0.0000E+00  0.000E+00  0.000E+00  0.000E+00  1.07825E+03  0.000E+00  4.000E+00  0.000E+00  1.000E+00





UNSATURATED ZONE PACKAGE VOLUMETRIC BUDGET FOR  TIME STEP    30 STRESS PERIOD    2
  ------------------------------------------------------------------------------



     CUMULATIVE VOLUMES      L**3       RATES FOR THIS TIME STEP      L**3/T
     ------------------                 ------------------------

           IN:                                      IN:
           ---                                      ---
        INFILTRATION =     2302148.8727          INFILTRATION =           0.8475

          OUT:                                     OUT:
          ----                                     ----
              UZF ET =     1972485.7128                UZF ET =           0.7500
        UZF RECHARGE =       73224.0000          UZF RECHARGE =       0.0000E+00

            IN - OUT =      256439.1600              IN - OUT =       9.7500E-02

          STORAGE:                                 STORAGE:
          --------                                 --------
      STORAGE CHANGE =      256439.1819        STORAGE CHANGE =       9.7500E-02

 PERCENT DISCREPANCY IS DIFFERENCE BETWEEN IN-OUT MINUS CHANGE IN STORAGE
 DIVIDED BY THE AVERAGE OF IN AND OUT TIMES 100

 PERCENT DISCREPANCY =          -0.00     PERCENT DISCREPANCY =           0.00






1
  VOLUMETRIC BUDGET FOR AGRICULTURAL FIELDS AT  END OF TIME STEP   30, STRESS PERIOD   2
  ------------------------------------------------------------------------------

     CUMULATIVE VOLUMES      L**3       RATES FOR THIS TIME STEP      L**3/T
     ------------------                 ------------------------

           IN:                                      IN:
           ---                                      ---
               AG WELLS  =           0.0000                 AG WELLS  =           0.0000
      DIVERSION SEGMENTS =           0.0000        DIVERSION SEGMENTS =           0.0000
       IRRIGATION PONDS  =           0.0000         IRRIGATION PONDS  =           0.0000
           GW IRRIGATION =           0.0000             GW IRRIGATION =           0.0000
           SW IRRIGATION =           0.0000             SW IRRIGATION =           0.0000
        SYSTEM LOSSES GW =           0.0000          SYSTEM LOSSES GW =           0.0000
        SYSTEM LOSSES SW =           0.0000          SYSTEM LOSSES SW =           0.0000

                TOTAL IN =           0.0000                  TOTAL IN =           0.0000

          OUT:                                     OUT:
          ----                                     ----
               AG WELLS  =           0.0000                 AG WELLS  =           0.0000
      DIVERSION SEGMENTS =           0.0000        DIVERSION SEGMENTS =           0.0000
       IRRIGATION PONDS  =           0.0000         IRRIGATION PONDS  =           0.0000
           GW IRRIGATION =           0.0000             GW IRRIGATION =           0.0000
           SW IRRIGATION =           0.0000             SW IRRIGATION =           0.0000
        SYSTEM LOSSES GW =           0.0000          SYSTEM LOSSES GW =           0.0000
        SYSTEM LOSSES SW =           0.0000          SYSTEM LOSSES SW =           0.0000

               TOTAL OUT =           0.0000                 TOTAL OUT =           0.0000

                IN - OUT =           0.0000                  IN - OUT =           0.0000

     PERCENT DISCREPANCY =           0.00         PERCENT DISCREPANCY =           0.00



1
  VOLUMETRIC BUDGET FOR ENTIRE MODEL AT END OF TIME STEP   30, STRESS PERIOD   2
  ------------------------------------------------------------------------------

     CUMULATIVE VOLUMES      L**3       RATES FOR THIS TIME STEP      L**3/T
     ------------------                 ------------------------

           IN:                                      IN:
           ---                                      ---
             STORAGE     =     1698293.2500               STORAGE     =           0.5858
       CONSTANT HEAD     =           0.0000         CONSTANT HEAD     =           0.0000
     HEAD DEP BOUNDS     =      781723.8750       HEAD DEP BOUNDS     =           0.2878
      STREAM LEAKAGE     =    30218964.0000        STREAM LEAKAGE     =          11.1681
        UZF RECHARGE     =       73223.9531          UZF RECHARGE     =           0.0000
               GW ET     =           0.0000                 GW ET     =           0.0000
     SURFACE LEAKAGE     =           0.0000       SURFACE LEAKAGE     =           0.0000
           AG WELLS      =           0.0000             AG WELLS      =           0.0000

                TOTAL IN =    32772204.0000                  TOTAL IN =          12.0417

          OUT:                                     OUT:
          ----                                     ----
             STORAGE     =     4124340.2500               STORAGE     =           1.4173
       CONSTANT HEAD     =           0.0000         CONSTANT HEAD     =           0.0000
     HEAD DEP BOUNDS     =      779352.1875       HEAD DEP BOUNDS     =           0.2872
      STREAM LEAKAGE     =    27869200.0000        STREAM LEAKAGE     =          10.3374
        UZF RECHARGE     =           0.0000          UZF RECHARGE     =           0.0000
               GW ET     =           0.0000                 GW ET     =           0.0000
     SURFACE LEAKAGE     =           0.0000       SURFACE LEAKAGE     =           0.0000
           AG WELLS      =           0.0000             AG WELLS      =           0.0000

               TOTAL OUT =    32772892.0000                 TOTAL OUT =          12.0419

                IN - OUT =        -688.0000                  IN - OUT =      -2.3460E-04

     PERCENT DISCREPANCY =          -0.00         PERCENT DISCREPANCY =          -0.00






         TIME SUMMARY AT END OF TIME STEP   30 IN STRESS PERIOD    2
                    SECONDS     MINUTES      HOURS       DAYS        YEARS
                    -----------------------------------------------------------
   TIME STEP LENGTH  87667.      1461.1      24.352      1.0147     2.77799E-03
 STRESS PERIOD TIME 2.63000E+06  43833.      730.56      30.440     8.33397E-02
         TOTAL TIME 2.71640E+06  45273.      754.56      31.440     8.60775E-02
1
1
                            STRESS PERIOD NO.    3, LENGTH =   2630000.    
                            -----------------------------------------------

                              NUMBER OF TIME STEPS =    30

                               MULTIPLIER FOR DELT =     1.000

                            INITIAL TIME STEP SIZE =   87666.66    

 REUSING NON-PARAMETER GHB CELLS FROM LAST STRESS PERIOD

      2 GHB CELLS

 REUSING STREAM SEGMENT DATA FROM LAST STRESS PERIOD



            AREAL INFILTRATION RATE
 READING ON UNIT   19 WITH FORMAT: (FREE)              

            1           2           3           4           5           6           7           8           9          10
 ........................................................................................................................
   1   1.0000E-10  2.0000E-10   0.000       0.000       0.000       0.000       0.000       0.000       0.000       0.000    
   2   2.0000E-10  1.0000E-10  2.0000E-10   0.000       0.000      8.0000E-10  8.0000E-10  5.0000E-10   0.000       0.000    
   3    0.000      5.0000E-10  1.0000E-10  1.0000E-10  8.0000E-10  8.0000E-10  5.0000E-10  5.0000E-10   0.000       0.000    
   4   8.0000E-10  5.0000E-10  1.0000E-10  1.0000E-10  1.0000E-10  1.0000E-10  1.0000E-10  1.0000E-10  2.0000E-10   0.000    
   5   8.0000E-10  5.0000E-10  1.0000E-10  1.0000E-10  1.0000E-10  1.0000E-10  1.0000E-10  1.0000E-10  1.0000E-10  1.0000E-10
   6   8.0000E-10  5.0000E-10  5.0000E-10  2.0000E-10  2.0000E-10  1.0000E-10  1.0000E-10  1.0000E-10  1.0000E-10  5.0000E-10
   7   8.0000E-10  5.0000E-10  5.0000E-10  2.0000E-10  2.0000E-10  1.0000E-10  1.0000E-10  2.0000E-10  2.0000E-10   0.000    
   8    0.000      5.0000E-10  5.0000E-10  2.0000E-10  2.0000E-10  1.0000E-10  1.0000E-10  2.0000E-10  5.0000E-10   0.000    
   9    0.000      5.0000E-10  5.0000E-10  2.0000E-10  2.0000E-10  1.0000E-10  1.0000E-10  2.0000E-10  5.0000E-10   0.000    
  10    0.000      5.0000E-10  5.0000E-10  2.0000E-10  2.0000E-10  1.0000E-10  1.0000E-10  2.0000E-10  5.0000E-10  8.0000E-10
  11    0.000      1.0000E-10  1.0000E-10  1.0000E-10  1.0000E-10  1.0000E-10  1.0000E-10  2.0000E-10  5.0000E-10   0.000    
  12   1.0000E-10  1.0000E-10  1.0000E-10  1.0000E-10  1.0000E-10  1.0000E-10  1.0000E-10  1.0000E-10  2.0000E-10   0.000    
  13   1.0000E-10  1.0000E-10  2.0000E-10  2.0000E-10  2.0000E-10  2.0000E-10  2.0000E-10  1.0000E-10  1.0000E-10   0.000    
  14    0.000      2.0000E-10  5.0000E-10  5.0000E-10  5.0000E-10  5.0000E-10  5.0000E-10  2.0000E-10  1.0000E-10   0.000    
  15    0.000       0.000      8.0000E-10  8.0000E-10  8.0000E-10  8.0000E-10   0.000       0.000       0.000       0.000    

                  ET RATE =  5.000000E-10

 USING ET EXTINCTION DEPTH FROM PREVIOUS STRESS PERIOD. CURRENT PERIOD IS:       3

 USING EXTINCTION WATER CONTENT FROM PREVIOUS STRESS PERIOD. CURRENT PERIOD IS:       3

 USING AIR ENTRY PRESSURE FROM PREVIOUS STRESS PERIOD. CURRENT PERIOD IS:       3

 USING ROOT PRESSURE HEAD FROM PREVIOUS STRESS PERIOD. CURRENT PERIOD IS:       3

 USING ROOT ACTIVITY FROM PREVIOUS STRESS PERIOD. CURRENT PERIOD IS:       3

 PROCESSING AG STRESS PERIOD DATA

 READING AG STRESS PERIOD DATA

 READING IRRIGATION SEGMENT

 READING IRRIGATION WELL

 READING SUPPLEMENTAL WELL

 NO IRRPOND OR REUSING IRRPOND DATA FROM LAST STRESS PERIOD

 END PROCESSING AG STRESS PERIOD DATA OPTIONS
 
 SOLVING FOR HEAD 
                                                   Max.-Head-Change                         Max.-Flux-Residual
  Residual-Control   Outer-Iter.   Inner-Iter.     Column Row Layer    Maximum-Head-Change  Column Row Layer    Maximum-Flux-Residual          L2-NORM 
          0                 1           2             2    2     1       0.2525011357E-02       2    2    1         0.1319005112E+00      0.4039561040E+00
          0                 2           2             2    2     1      -0.2456150129E-03       2    2    1        -0.1319006855E-01      0.4181694327E-01
          0                 3           1             2    2     1       0.1672546936E-04       2    2    1         0.9233050379E-03      0.2906724711E-02

    ------------------------------------------------
       NWT REQUIRED            3 OUTER ITERATIONS 
       AND A TOTAL OF          5 INNER ITERATIONS.
    ------------------------------------------------

 NO OUTPUT CONTROL FOR STRESS PERIOD    3   TIME STEP    1
 
 SOLVING FOR HEAD 
                                                   Max.-Head-Change                         Max.-Flux-Residual
  Residual-Control   Outer-Iter.   Inner-Iter.     Column Row Layer    Maximum-Head-Change  Column Row Layer    Maximum-Flux-Residual          L2-NORM 
          0                 1           2             2    2     1       0.3324231131E-02       2    2    1         0.1736614038E+00      0.5146754142E+00
          0                 2           2             2    2     1      -0.3233575028E-03       2    2    1        -0.1736617106E-01      0.5102024440E-01
          0                 3           1             2    2     1       0.2201944266E-04       2    2    1         0.1215632199E-02      0.3530081504E-02

    ------------------------------------------------
       NWT REQUIRED            3 OUTER ITERATIONS 
       AND A TOTAL OF          5 INNER ITERATIONS.
    ------------------------------------------------

 NO OUTPUT CONTROL FOR STRESS PERIOD    3   TIME STEP    2
 
 SOLVING FOR HEAD 
                                                   Max.-Head-Change                         Max.-Flux-Residual
  Residual-Control   Outer-Iter.   Inner-Iter.     Column Row Layer    Maximum-Head-Change  Column Row Layer    Maximum-Flux-Residual          L2-NORM 
          0                 1           2             2    2     1       0.3301480467E-02       2    2    1         0.1724651001E+00      0.4998439178E+00
          0                 2           2             2    2     1      -0.3211444747E-03       2    2    1        -0.1724654009E-01      0.4958929944E-01
          0                 3           1             2    2     1       0.2186874379E-04       2    2    1         0.1207258049E-02      0.3434935461E-02

    ------------------------------------------------
       NWT REQUIRED            3 OUTER ITERATIONS 
       AND A TOTAL OF          5 INNER ITERATIONS.
    ------------------------------------------------

 NO OUTPUT CONTROL FOR STRESS PERIOD    3   TIME STEP    3
 
 SOLVING FOR HEAD 
                                                   Max.-Head-Change                         Max.-Flux-Residual
  Residual-Control   Outer-Iter.   Inner-Iter.     Column Row Layer    Maximum-Head-Change  Column Row Layer    Maximum-Flux-Residual          L2-NORM 
          0                 1           2             2    2     1       0.3279131818E-02       2    2    1         0.1712899373E+00      0.4865714186E+00
          0                 2           2             2    2     1      -0.3189705518E-03       2    2    1        -0.1712902324E-01      0.4830887629E-01
          0                 3           1             2    2     1       0.2172070774E-04       2    2    1         0.1199031861E-02      0.3349499608E-02

    ------------------------------------------------
       NWT REQUIRED            3 OUTER ITERATIONS 
       AND A TOTAL OF          5 INNER ITERATIONS.
    ------------------------------------------------

 NO OUTPUT CONTROL FOR STRESS PERIOD    3   TIME STEP    4
 
 SOLVING FOR HEAD 
                                                   Max.-Head-Change                         Max.-Flux-Residual
  Residual-Control   Outer-Iter.   Inner-Iter.     Column Row Layer    Maximum-Head-Change  Column Row Layer    Maximum-Flux-Residual          L2-NORM 
          0                 1           2             2    2     1       0.3257010121E-02       2    2    1         0.1701267478E+00      0.4746967975E+00
          0                 2           2             2    2     1      -0.3168187054E-03       2    2    1        -0.1701270371E-01      0.4716328635E-01
          0                 3           1             2    2     1       0.2157417503E-04       2    2    1         0.1190889507E-02      0.3270890237E-02

    ------------------------------------------------
       NWT REQUIRED            3 OUTER ITERATIONS 
       AND A TOTAL OF          5 INNER ITERATIONS.
    ------------------------------------------------

 NO OUTPUT CONTROL FOR STRESS PERIOD    3   TIME STEP    5
 
 SOLVING FOR HEAD 
                                                   Max.-Head-Change                         Max.-Flux-Residual
  Residual-Control   Outer-Iter.   Inner-Iter.     Column Row Layer    Maximum-Head-Change  Column Row Layer    Maximum-Flux-Residual          L2-NORM 
          0                 1           2             2    2     1       0.3235280851E-02       2    2    1         0.1689841965E+00      0.4640265425E+00
          0                 2           2             2    2     1      -0.3147050320E-03       2    2    1        -0.1689844808E-01      0.4613312208E-01
          0                 3           1             2    2     1       0.2143024171E-04       2    2    1         0.1182891598E-02      0.3204696499E-02

    ------------------------------------------------
       NWT REQUIRED            3 OUTER ITERATIONS 
       AND A TOTAL OF          5 INNER ITERATIONS.
    ------------------------------------------------

 NO OUTPUT CONTROL FOR STRESS PERIOD    3   TIME STEP    6
 
 SOLVING FOR HEAD 
                                                   Max.-Head-Change                         Max.-Flux-Residual
  Residual-Control   Outer-Iter.   Inner-Iter.     Column Row Layer    Maximum-Head-Change  Column Row Layer    Maximum-Flux-Residual          L2-NORM 
          0                 1           2             2    2     1       0.3213768742E-02       2    2    1         0.1678531209E+00      0.4544395675E+00
          0                 2           2             2    2     1      -0.3126124822E-03       2    2    1        -0.1678533996E-01      0.4520717740E-01
          0                 3           1             2    2     1       0.2128774736E-04       2    2    1         0.1174974052E-02      0.3142849220E-02

    ------------------------------------------------
       NWT REQUIRED            3 OUTER ITERATIONS 
       AND A TOTAL OF          5 INNER ITERATIONS.
    ------------------------------------------------

 NO OUTPUT CONTROL FOR STRESS PERIOD    3   TIME STEP    7
 
 SOLVING FOR HEAD 
                                                   Max.-Head-Change                         Max.-Flux-Residual
  Residual-Control   Outer-Iter.   Inner-Iter.     Column Row Layer    Maximum-Head-Change  Column Row Layer    Maximum-Flux-Residual          L2-NORM 
          0                 1           2             2    2     1       0.3192554582E-02       2    2    1         0.1667377406E+00      0.4457937575E+00
          0                 2           2             2    2     1      -0.3105489156E-03       2    2    1        -0.1667380143E-01      0.4437312582E-01
          0                 3           1             2    2     1       0.2114722592E-04       2    2    1         0.1167166361E-02      0.3087989836E-02

    ------------------------------------------------
       NWT REQUIRED            3 OUTER ITERATIONS 
       AND A TOTAL OF          5 INNER ITERATIONS.
    ------------------------------------------------

 NO OUTPUT CONTROL FOR STRESS PERIOD    3   TIME STEP    8
 
 SOLVING FOR HEAD 
                                                   Max.-Head-Change                         Max.-Flux-Residual
  Residual-Control   Outer-Iter.   Inner-Iter.     Column Row Layer    Maximum-Head-Change  Column Row Layer    Maximum-Flux-Residual          L2-NORM 
          0                 1           2             2    2     1       0.3171548839E-02       2    2    1         0.1656333726E+00      0.4379820131E+00
          0                 2           2             2    2     1      -0.3085056218E-03       2    2    1        -0.1656336413E-01      0.4361531313E-01
          0                 3           1             2    2     1       0.2100808546E-04       2    2    1         0.1159435746E-02      0.3036168713E-02

    ------------------------------------------------
       NWT REQUIRED            3 OUTER ITERATIONS 
       AND A TOTAL OF          5 INNER ITERATIONS.
    ------------------------------------------------

 NO OUTPUT CONTROL FOR STRESS PERIOD    3   TIME STEP    9
 
 SOLVING FOR HEAD 
                                                   Max.-Head-Change                         Max.-Flux-Residual
  Residual-Control   Outer-Iter.   Inner-Iter.     Column Row Layer    Maximum-Head-Change  Column Row Layer    Maximum-Flux-Residual          L2-NORM 
          0                 1           2             2    2     1       0.3150918025E-02       2    2    1         0.1645486827E+00      0.4309014473E+00
          0                 2           2             2    2     1      -0.3064987986E-03       2    2    1        -0.1645489464E-01      0.4292970047E-01
          0                 3           1             2    2     1       0.2087142819E-04       2    2    1         0.1151842872E-02      0.2990345713E-02

    ------------------------------------------------
       NWT REQUIRED            3 OUTER ITERATIONS 
       AND A TOTAL OF          5 INNER ITERATIONS.
    ------------------------------------------------

 NO OUTPUT CONTROL FOR STRESS PERIOD    3   TIME STEP   10
 
 SOLVING FOR HEAD 
                                                   Max.-Head-Change                         Max.-Flux-Residual
  Residual-Control   Outer-Iter.   Inner-Iter.     Column Row Layer    Maximum-Head-Change  Column Row Layer    Maximum-Flux-Residual          L2-NORM 
          0                 1           2             2    2     1       0.3130486817E-02       2    2    1         0.1634745604E+00      0.4244596632E+00
          0                 2           2             2    2     1      -0.3045113916E-03       2    2    1        -0.1634748192E-01      0.4230497152E-01
          0                 3           1             2    2     1       0.2073609344E-04       2    2    1         0.1144323989E-02      0.2948688901E-02

    ------------------------------------------------
       NWT REQUIRED            3 OUTER ITERATIONS 
       AND A TOTAL OF          5 INNER ITERATIONS.
    ------------------------------------------------

 NO OUTPUT CONTROL FOR STRESS PERIOD    3   TIME STEP   11
 
 SOLVING FOR HEAD 
                                                   Max.-Head-Change                         Max.-Flux-Residual
  Residual-Control   Outer-Iter.   Inner-Iter.     Column Row Layer    Maximum-Head-Change  Column Row Layer    Maximum-Flux-Residual          L2-NORM 
          0                 1           2             2    2     1       0.3110421577E-02       2    2    1         0.1624196598E+00      0.4185889141E+00
          0                 2           2             2    2     1      -0.3025595840E-03       2    2    1        -0.1624199138E-01      0.4173522698E-01
          0                 3           1             2    2     1       0.2060318246E-04       2    2    1         0.1136939658E-02      0.2910188975E-02

    ------------------------------------------------
       NWT REQUIRED            3 OUTER ITERATIONS 
       AND A TOTAL OF          5 INNER ITERATIONS.
    ------------------------------------------------

 NO OUTPUT CONTROL FOR STRESS PERIOD    3   TIME STEP   12
 
 SOLVING FOR HEAD 
                                                   Max.-Head-Change                         Max.-Flux-Residual
  Residual-Control   Outer-Iter.   Inner-Iter.     Column Row Layer    Maximum-Head-Change  Column Row Layer    Maximum-Flux-Residual          L2-NORM 
          0                 1           2             2    2     1       0.3090547437E-02       2    2    1         0.1613748618E+00      0.4132170528E+00
          0                 2           2             2    2     1      -0.3006263653E-03       2    2    1        -0.1613751113E-01      0.4121296719E-01
          0                 3           1             2    2     1       0.2047153721E-04       2    2    1         0.1129626030E-02      0.2874981966E-02

    ------------------------------------------------
       NWT REQUIRED            3 OUTER ITERATIONS 
       AND A TOTAL OF          5 INNER ITERATIONS.
    ------------------------------------------------

 NO OUTPUT CONTROL FOR STRESS PERIOD    3   TIME STEP   13
 
 SOLVING FOR HEAD 
                                                   Max.-Head-Change                         Max.-Flux-Residual
  Residual-Control   Outer-Iter.   Inner-Iter.     Column Row Layer    Maximum-Head-Change  Column Row Layer    Maximum-Flux-Residual          L2-NORM 
          0                 1           2             2    2     1       0.3070945672E-02       2    2    1         0.1603444083E+00      0.4082878642E+00
          0                 2           2             2    2     1      -0.2987196410E-03       2    2    1        -0.1603446533E-01      0.4073316193E-01
          0                 3           1             2    2     1       0.2034169636E-04       2    2    1         0.1122412824E-02      0.2842122409E-02

    ------------------------------------------------
       NWT REQUIRED            3 OUTER ITERATIONS 
       AND A TOTAL OF          5 INNER ITERATIONS.
    ------------------------------------------------

 NO OUTPUT CONTROL FOR STRESS PERIOD    3   TIME STEP   14
 
 SOLVING FOR HEAD 
                                                   Max.-Head-Change                         Max.-Flux-Residual
  Residual-Control   Outer-Iter.   Inner-Iter.     Column Row Layer    Maximum-Head-Change  Column Row Layer    Maximum-Flux-Residual          L2-NORM 
          0                 1           2             2    2     1       0.3051611998E-02       2    2    1         0.1593280771E+00      0.4037432855E+00
          0                 2           2             2    2     1      -0.2968389952E-03       2    2    1        -0.1593283178E-01      0.4029055436E-01
          0                 3           1             2    2     1       0.2021363175E-04       2    2    1         0.1115298474E-02      0.2812665501E-02

    ------------------------------------------------
       NWT REQUIRED            3 OUTER ITERATIONS 
       AND A TOTAL OF          5 INNER ITERATIONS.
    ------------------------------------------------

 NO OUTPUT CONTROL FOR STRESS PERIOD    3   TIME STEP   15
 
 SOLVING FOR HEAD 
                                                   Max.-Head-Change                         Max.-Flux-Residual
  Residual-Control   Outer-Iter.   Inner-Iter.     Column Row Layer    Maximum-Head-Change  Column Row Layer    Maximum-Flux-Residual          L2-NORM 
          0                 1           2             2    2     1       0.3032542649E-02       2    2    1         0.1583256463E+00      0.3995411777E+00
          0                 2           2             2    2     1      -0.2949840610E-03       2    2    1        -0.1583258826E-01      0.3988016463E-01
          0                 3           1             2    2     1       0.2008731757E-04       2    2    1         0.1108281427E-02      0.2784963619E-02

    ------------------------------------------------
       NWT REQUIRED            3 OUTER ITERATIONS 
       AND A TOTAL OF          5 INNER ITERATIONS.
    ------------------------------------------------

 NO OUTPUT CONTROL FOR STRESS PERIOD    3   TIME STEP   16
 
 SOLVING FOR HEAD 
                                                   Max.-Head-Change                         Max.-Flux-Residual
  Residual-Control   Outer-Iter.   Inner-Iter.     Column Row Layer    Maximum-Head-Change  Column Row Layer    Maximum-Flux-Residual          L2-NORM 
          0                 1           2             2    2     1       0.3013648210E-02       2    2    1         0.1573324837E+00      0.3956471269E+00
          0                 2           2             2    2     1      -0.2931461416E-03       2    2    1        -0.1573327161E-01      0.3949936634E-01
          0                 3           1             2    2     1       0.1996216214E-04       2    2    1         0.1101329276E-02      0.2758858441E-02

    ------------------------------------------------
       NWT REQUIRED            3 OUTER ITERATIONS 
       AND A TOTAL OF          5 INNER ITERATIONS.
    ------------------------------------------------

 NO OUTPUT CONTROL FOR STRESS PERIOD    3   TIME STEP   17
 
 SOLVING FOR HEAD 
                                                   Max.-Head-Change                         Max.-Flux-Residual
  Residual-Control   Outer-Iter.   Inner-Iter.     Column Row Layer    Maximum-Head-Change  Column Row Layer    Maximum-Flux-Residual          L2-NORM 
          0                 1           2             2    2     1       0.2995086685E-02       2    2    1         0.1563567839E+00      0.3920195151E+00
          0                 2           2             2    2     1      -0.2913406047E-03       2    2    1        -0.1563570120E-01      0.3914490014E-01
          0                 3           1             2    2     1       0.1983921179E-04       2    2    1         0.1094499337E-02      0.2735070227E-02

    ------------------------------------------------
       NWT REQUIRED            3 OUTER ITERATIONS 
       AND A TOTAL OF          5 INNER ITERATIONS.
    ------------------------------------------------

 NO OUTPUT CONTROL FOR STRESS PERIOD    3   TIME STEP   18
 
 SOLVING FOR HEAD 
                                                   Max.-Head-Change                         Max.-Flux-Residual
  Residual-Control   Outer-Iter.   Inner-Iter.     Column Row Layer    Maximum-Head-Change  Column Row Layer    Maximum-Flux-Residual          L2-NORM 
          0                 1           2             2    2     1       0.2976701687E-02       2    2    1         0.1553904308E+00      0.3886479529E+00
          0                 2           2             2    2     1      -0.2895522397E-03       2    2    1        -0.1553906548E-01      0.3881409150E-01
          0                 3           1             2    2     1       0.1971743109E-04       2    2    1         0.1087734852E-02      0.2712477527E-02

    ------------------------------------------------
       NWT REQUIRED            3 OUTER ITERATIONS 
       AND A TOTAL OF          5 INNER ITERATIONS.
    ------------------------------------------------

 NO OUTPUT CONTROL FOR STRESS PERIOD    3   TIME STEP   19
 
 SOLVING FOR HEAD 
                                                   Max.-Head-Change                         Max.-Flux-Residual
  Residual-Control   Outer-Iter.   Inner-Iter.     Column Row Layer    Maximum-Head-Change  Column Row Layer    Maximum-Flux-Residual          L2-NORM 
          0                 1           2             2    2     1       0.2958565986E-02       2    2    1         0.1544371877E+00      0.3854777616E+00
          0                 2           2             2    2     1      -0.2877881247E-03       2    2    1        -0.1544374080E-01      0.3850192949E-01
          0                 3           1             2    2     1       0.1959730141E-04       2    2    1         0.1081062114E-02      0.2689673866E-02

    ------------------------------------------------
       NWT REQUIRED            3 OUTER ITERATIONS 
       AND A TOTAL OF          5 INNER ITERATIONS.
    ------------------------------------------------

 NO OUTPUT CONTROL FOR STRESS PERIOD    3   TIME STEP   20
 
 SOLVING FOR HEAD 
                                                   Max.-Head-Change                         Max.-Flux-Residual
  Residual-Control   Outer-Iter.   Inner-Iter.     Column Row Layer    Maximum-Head-Change  Column Row Layer    Maximum-Flux-Residual          L2-NORM 
          0                 1           2             2    2     1       0.2940675688E-02       2    2    1         0.1534968704E+00      0.3824967673E+00
          0                 2           2             2    2     1      -0.2860478810E-03       2    2    1        -0.1534970870E-01      0.3821053852E-01
          0                 3           1             2    2     1       0.1947879698E-04       2    2    1         0.1074479866E-02      0.2671363531E-02

    ------------------------------------------------
       NWT REQUIRED            3 OUTER ITERATIONS 
       AND A TOTAL OF          5 INNER ITERATIONS.
    ------------------------------------------------

 NO OUTPUT CONTROL FOR STRESS PERIOD    3   TIME STEP   21
 
 SOLVING FOR HEAD 
                                                   Max.-Head-Change                         Max.-Flux-Residual
  Residual-Control   Outer-Iter.   Inner-Iter.     Column Row Layer    Maximum-Head-Change  Column Row Layer    Maximum-Flux-Residual          L2-NORM 
          0                 1           2             2    2     1       0.2923027038E-02       2    2    1         0.1525692770E+00      0.3797026233E+00
          0                 2           2             2    2     1      -0.2843311427E-03       2    2    1        -0.1525694898E-01      0.3793538048E-01
          0                 3           1             2    2     1       0.1936189363E-04       2    2    1         0.1067986683E-02      0.2652299631E-02

    ------------------------------------------------
       NWT REQUIRED            3 OUTER ITERATIONS 
       AND A TOTAL OF          5 INNER ITERATIONS.
    ------------------------------------------------

 NO OUTPUT CONTROL FOR STRESS PERIOD    3   TIME STEP   22
 
 SOLVING FOR HEAD 
                                                   Max.-Head-Change                         Max.-Flux-Residual
  Residual-Control   Outer-Iter.   Inner-Iter.     Column Row Layer    Maximum-Head-Change  Column Row Layer    Maximum-Flux-Residual          L2-NORM 
          0                 1           2             2    2     1       0.2905615958E-02       2    2    1         0.1516542128E+00      0.3770550096E+00
          0                 2           2             2    2     1      -0.2826375138E-03       2    2    1        -0.1516544218E-01      0.3767414756E-01
          0                 3           1             2    2     1       0.1924656393E-04       2    2    1         0.1061581209E-02      0.2634458299E-02

    ------------------------------------------------
       NWT REQUIRED            3 OUTER ITERATIONS 
       AND A TOTAL OF          5 INNER ITERATIONS.
    ------------------------------------------------

 NO OUTPUT CONTROL FOR STRESS PERIOD    3   TIME STEP   23
 
 SOLVING FOR HEAD 
                                                   Max.-Head-Change                         Max.-Flux-Residual
  Residual-Control   Outer-Iter.   Inner-Iter.     Column Row Layer    Maximum-Head-Change  Column Row Layer    Maximum-Flux-Residual          L2-NORM 
          0                 1           2             2    2     1       0.2888354939E-02       2    2    1         0.1507470290E+00      0.3745454168E+00
          0                 2           2             2    2     1      -0.2809584821E-03       2    2    1        -0.1507472346E-01      0.3742728485E-01
          0                 3           1             2    2     1       0.1913222826E-04       2    2    1         0.1055230902E-02      0.2617520590E-02

    ------------------------------------------------
       NWT REQUIRED            3 OUTER ITERATIONS 
       AND A TOTAL OF          5 INNER ITERATIONS.
    ------------------------------------------------

 NO OUTPUT CONTROL FOR STRESS PERIOD    3   TIME STEP   24
 
 SOLVING FOR HEAD 
                                                   Max.-Head-Change                         Max.-Flux-Residual
  Residual-Control   Outer-Iter.   Inner-Iter.     Column Row Layer    Maximum-Head-Change  Column Row Layer    Maximum-Flux-Residual          L2-NORM 
          0                 1           2             2    2     1       0.2871410514E-02       2    2    1         0.1498565005E+00      0.3721681515E+00
          0                 2           2             2    2     1      -0.2793102462E-03       2    2    1        -0.1498567025E-01      0.3719261828E-01
          0                 3           1             2    2     1       0.1901998904E-04       2    2    1         0.1048997171E-02      0.2601223372E-02

    ------------------------------------------------
       NWT REQUIRED            3 OUTER ITERATIONS 
       AND A TOTAL OF          5 INNER ITERATIONS.
    ------------------------------------------------

 NO OUTPUT CONTROL FOR STRESS PERIOD    3   TIME STEP   25
 
 SOLVING FOR HEAD 
                                                   Max.-Head-Change                         Max.-Flux-Residual
  Residual-Control   Outer-Iter.   Inner-Iter.     Column Row Layer    Maximum-Head-Change  Column Row Layer    Maximum-Flux-Residual          L2-NORM 
          0                 1           2             2    2     1       0.2854608264E-02       2    2    1         0.1489735121E+00      0.3699009105E+00
          0                 2           2             2    2     1      -0.2776758406E-03       2    2    1        -0.1489737109E-01      0.3696829214E-01
          0                 3           1             2    2     1       0.1890869248E-04       2    2    1         0.1042816234E-02      0.2585727980E-02

    ------------------------------------------------
       NWT REQUIRED            3 OUTER ITERATIONS 
       AND A TOTAL OF          5 INNER ITERATIONS.
    ------------------------------------------------

 NO OUTPUT CONTROL FOR STRESS PERIOD    3   TIME STEP   26
 
 SOLVING FOR HEAD 
                                                   Max.-Head-Change                         Max.-Flux-Residual
  Residual-Control   Outer-Iter.   Inner-Iter.     Column Row Layer    Maximum-Head-Change  Column Row Layer    Maximum-Flux-Residual          L2-NORM 
          0                 1           2             2    2     1       0.2838115570E-02       2    2    1         0.1481067704E+00      0.3677400383E+00
          0                 2           2             2    2     1      -0.2760715463E-03       2    2    1        -0.1481069658E-01      0.3675480245E-01
          0                 3           1             2    2     1       0.1879944623E-04       2    2    1         0.1036749030E-02      0.2571036846E-02

    ------------------------------------------------
       NWT REQUIRED            3 OUTER ITERATIONS 
       AND A TOTAL OF          5 INNER ITERATIONS.
    ------------------------------------------------

 NO OUTPUT CONTROL FOR STRESS PERIOD    3   TIME STEP   27
 
 SOLVING FOR HEAD 
                                                   Max.-Head-Change                         Max.-Flux-Residual
  Residual-Control   Outer-Iter.   Inner-Iter.     Column Row Layer    Maximum-Head-Change  Column Row Layer    Maximum-Flux-Residual          L2-NORM 
          0                 1           2             2    2     1       0.2821758846E-02       2    2    1         0.1472472037E+00      0.3656790175E+00
          0                 2           2             2    2     1      -0.2744804784E-03       2    2    1        -0.1472473959E-01      0.3655086991E-01
          0                 3           1             2    2     1       0.1869110052E-04       2    2    1         0.1030732055E-02      0.2557093291E-02

    ------------------------------------------------
       NWT REQUIRED            3 OUTER ITERATIONS 
       AND A TOTAL OF          5 INNER ITERATIONS.
    ------------------------------------------------

 NO OUTPUT CONTROL FOR STRESS PERIOD    3   TIME STEP   28
 
 SOLVING FOR HEAD 
                                                   Max.-Head-Change                         Max.-Flux-Residual
  Residual-Control   Outer-Iter.   Inner-Iter.     Column Row Layer    Maximum-Head-Change  Column Row Layer    Maximum-Flux-Residual          L2-NORM 
          0                 1           2             2    2     1       0.2805619931E-02       2    2    1         0.1463991244E+00      0.3637082943E+00
          0                 2           2             2    2     1      -0.2729105967E-03       2    2    1        -0.1463993132E-01      0.3635570891E-01
          0                 3           1             2    2     1       0.1858419710E-04       2    2    1         0.1024795464E-02      0.2543539986E-02

    ------------------------------------------------
       NWT REQUIRED            3 OUTER ITERATIONS 
       AND A TOTAL OF          5 INNER ITERATIONS.
    ------------------------------------------------

 NO OUTPUT CONTROL FOR STRESS PERIOD    3   TIME STEP   29
 
 SOLVING FOR HEAD 
                                                   Max.-Head-Change                         Max.-Flux-Residual
  Residual-Control   Outer-Iter.   Inner-Iter.     Column Row Layer    Maximum-Head-Change  Column Row Layer    Maximum-Flux-Residual          L2-NORM 
          0                 1           2             4   13     1       0.4709136809E-02       4   13    1         0.2696369064E+00      0.6974167750E+00
          0                 2           2             2    2     1      -0.4535412924E-03       4   13    1        -0.2668102261E-01      0.6881940714E-01
          0                 3           1             2    2     1       0.3088447269E-04       4   13    1         0.1840059044E-02      0.4731509499E-02

    ------------------------------------------------
       NWT REQUIRED            3 OUTER ITERATIONS 
       AND A TOTAL OF          5 INNER ITERATIONS.
    ------------------------------------------------

 NO OUTPUT CONTROL FOR STRESS PERIOD    3   TIME STEP   30



 STREAM LISTING     PERIOD      3   STEP       30

 LAYER ROW COL. STREAM  RCH.  FLOW INTO     FLOW TO   FLOW OUT OF   OVRLND.     DIRECT     STREAM       STREAM     STREAM     STREAM   STREAMBED  STREAMBED
                SEG.NO.  NO.  STRM. RCH.    AQUIFER    STRM. RCH.    RUNOFF     PRECIP       ET          HEAD       DEPTH      WIDTH   CONDCTNC.   GRADIENT

   1    1    1     1     1    2.7188E+01  2.5503E-01   2.6933E+01  0.000E+00  0.000E+00  0.000E+00  1.09426E+03  1.210E+00  1.346E+01  6.058E-02  1.403E+00
   1    2    2     1     2    2.6933E+01  3.9447E-01   2.6539E+01  0.000E+00  0.000E+00  0.000E+00  1.08926E+03  1.205E+00  1.340E+01  9.380E-02  1.402E+00
   1    3    3     1     3    2.6539E+01  3.3594E-01   2.6203E+01  0.000E+00  0.000E+00  0.000E+00  1.08362E+03  1.200E+00  1.333E+01  7.998E-02  1.400E+00
   1    3    4     1     4    2.6203E+01  3.0895E-01   2.5894E+01  0.000E+00  0.000E+00  0.000E+00  1.07860E+03  1.196E+00  1.327E+01  7.364E-02  1.399E+00
   1    4    5     2     1    2.3894E+01  3.2529E-01   2.3568E+01  0.000E+00  0.000E+00  0.000E+00  1.07310E+03  1.170E+00  1.200E+01  7.800E-02  1.390E+00
   1    5    6     2     2    2.3568E+01  2.4971E-01   2.3319E+01  0.000E+00  0.000E+00  0.000E+00  1.06767E+03  1.162E+00  1.200E+01  6.000E-02  1.387E+00
   1    6    6     2     3    2.3319E+01  2.4927E-01   2.3069E+01  0.000E+00  0.000E+00  0.000E+00  1.06295E+03  1.154E+00  1.200E+01  6.000E-02  1.385E+00
   1    7    6     2     4    2.3069E+01  2.4882E-01   2.2821E+01  0.000E+00  0.000E+00  0.000E+00  1.05822E+03  1.147E+00  1.200E+01  6.000E-02  1.382E+00
   1    8    6     2     5    2.2821E+01  2.4837E-01   2.2572E+01  0.000E+00  0.000E+00  0.000E+00  1.05350E+03  1.140E+00  1.200E+01  6.000E-02  1.380E+00
   1    3    5     3     1    2.0000E+00  2.8252E-01   1.7175E+00  0.000E+00  0.000E+00  0.000E+00  1.07555E+03  1.909E+00  9.636E+00  7.227E-02  1.955E+00
   1    3    6     3     2    1.7175E+00  2.4905E-01   1.4684E+00  0.000E+00  0.000E+00  0.000E+00  1.07264E+03  1.727E+00  8.909E+00  6.682E-02  1.864E+00
   1    3    7     3     3    1.4684E+00  1.9718E-01   1.2712E+00  0.000E+00  0.000E+00  0.000E+00  1.06987E+03  1.555E+00  8.218E+00  5.547E-02  1.777E+00
   1    4    8     3     4    1.2712E+00  2.2567E-01   1.0456E+00  0.000E+00  0.000E+00  0.000E+00  1.06682E+03  1.364E+00  7.455E+00  6.709E-02  1.682E+00
   1    5    8     3     5    1.0456E+00  1.5790E-01   8.8768E-01  0.000E+00  0.000E+00  0.000E+00  1.06362E+03  1.164E+00  6.655E+00  4.991E-02  1.582E+00
   1    6    8     3     6    8.8768E-01  5.5980E-02   8.3170E-01  0.000E+00  0.000E+00  0.000E+00  1.06158E+03  1.036E+00  6.145E+00  1.844E-02  1.518E+00
   1    5   10     4     1    1.0000E+01  9.0919E-02   9.9091E+00  0.000E+00  0.000E+00  0.000E+00  1.07836E+03  6.368E-01  1.000E+01  2.500E-02  1.212E+00
   1    5    9     4     2    9.9091E+00  1.8158E-01   9.7275E+00  0.000E+00  0.000E+00  0.000E+00  1.07154E+03  6.315E-01  1.000E+01  5.000E-02  1.211E+00
   1    6    8     4     3    9.7275E+00  1.2689E-01   9.6006E+00  0.000E+00  0.000E+00  0.000E+00  1.06381E+03  6.256E-01  1.000E+01  3.500E-02  1.209E+00
   1    6    8     5     1    1.0432E+01  2.2686E-01   1.0205E+01  0.000E+00  0.000E+00  0.000E+00  1.05868E+03  6.790E-01  1.542E+01  6.166E-02  1.226E+00
   1    7    7     5     2    1.0205E+01  2.7894E-01   9.9265E+00  0.000E+00  0.000E+00  0.000E+00  1.05417E+03  6.732E-01  1.519E+01  7.594E-02  1.224E+00
   1    8    7     5     3    9.9265E+00  1.9221E-01   9.7343E+00  0.000E+00  0.000E+00  0.000E+00  1.04992E+03  6.676E-01  1.497E+01  5.241E-02  1.223E+00
   1    8    6     5     4    9.7343E+00  1.3577E-01   9.5985E+00  0.000E+00  0.000E+00  0.000E+00  1.04691E+03  6.637E-01  1.482E+01  3.706E-02  1.221E+00
   1    9    6     6     1    3.2171E+01  2.6502E-01   3.1906E+01  0.000E+00  0.000E+00  0.000E+00  1.04414E+03  1.417E+00  1.200E+01  6.000E-02  1.472E+00
   1   10    7     6     2    3.1906E+01  2.6460E-01   3.1641E+01  0.000E+00  0.000E+00  0.000E+00  1.03959E+03  1.410E+00  1.200E+01  6.000E-02  1.470E+00
   1   11    7     6     3    3.1641E+01  2.6418E-01   3.1377E+01  0.000E+00  0.000E+00  0.000E+00  1.03504E+03  1.403E+00  1.200E+01  6.000E-02  1.468E+00
   1   12    7     6     4    3.1377E+01  2.6375E-01   3.1113E+01  0.000E+00  0.000E+00  0.000E+00  1.03049E+03  1.396E+00  1.200E+01  6.000E-02  1.465E+00
   1   13    7     6     5    3.1113E+01  1.0995E-02   3.1102E+01  0.000E+00  0.000E+00  0.000E+00  1.02730E+03  1.392E+00  1.200E+01  2.400E-02  1.527E-01
   1   14    9     7     1    1.5000E+02  1.3665E+00   1.4863E+02  0.000E+00  0.000E+00  0.000E+00  1.03987E+03  2.288E+00  5.529E+01  5.593E-01  8.144E-01
   1   13    8     7     2    1.4863E+02  1.9191E+00   1.4671E+02  0.000E+00  0.000E+00  0.000E+00  1.03478E+03  2.279E+00  5.526E+01  6.148E-01  1.041E+00
   1   13    7     7     3    1.4671E+02  1.5891E+00   1.4513E+02  0.000E+00  0.000E+00  0.000E+00  1.02969E+03  2.270E+00  5.521E+01  5.584E-01  9.486E-01
   1   13    6     8     1    1.7623E+02  1.0561E+00   1.7517E+02  0.000E+00  0.000E+00  0.000E+00  1.02486E+03  2.989E+00  4.334E+01  4.416E-01  7.971E-01
   1   13    5     8     2    1.7517E+02  2.7870E-01   1.7489E+02  0.000E+00  0.000E+00  0.000E+00  1.01861E+03  2.985E+00  4.328E+01  4.410E-01  2.106E-01
   1   13    4     8     3    1.7489E+02 -1.9966E+00   1.7689E+02  0.000E+00  0.000E+00  0.000E+00  1.01237E+03  2.990E+00  4.336E+01  4.418E+00 -1.506E-01
   1   13    3     8     4    1.7689E+02 -3.3281E+00   1.8022E+02  0.000E+00  0.000E+00  0.000E+00  1.00613E+03  3.007E+00  4.360E+01  4.443E+00 -2.497E-01
   1   13    2     8     5    1.8022E+02 -2.3039E+00   1.8252E+02  0.000E+00  0.000E+00  0.000E+00  9.99900E+02  3.025E+00  4.386E+01  4.469E+00 -1.718E-01
   1   13    1     8     6    1.8252E+02 -1.8174E+00   1.8434E+02  0.000E+00  0.000E+00  0.000E+00  9.94913E+02  3.038E+00  4.405E+01  2.693E+00 -2.250E-01
   1    8    6     9     1    0.0000E+00  0.0000E+00   0.0000E+00  0.000E+00  0.000E+00  0.000E+00  1.07875E+03  0.000E+00  4.000E+00  0.000E+00  1.000E+00
   1    8    5     9     2    0.0000E+00  0.0000E+00   0.0000E+00  0.000E+00  0.000E+00  0.000E+00  1.07825E+03  0.000E+00  4.000E+00  0.000E+00  1.000E+00





UNSATURATED ZONE PACKAGE VOLUMETRIC BUDGET FOR  TIME STEP    30 STRESS PERIOD    3
  ------------------------------------------------------------------------------



     CUMULATIVE VOLUMES      L**3       RATES FOR THIS TIME STEP      L**3/T
     ------------------                 ------------------------

           IN:                                      IN:
           ---                                      ---
        INFILTRATION =     4531073.7455          INFILTRATION =           0.8475

          OUT:                                     OUT:
          ----                                     ----
              UZF ET =     3944985.5897                UZF ET =           0.7500
        UZF RECHARGE =       73224.0000          UZF RECHARGE =       0.0000E+00

            IN - OUT =      512864.1558              IN - OUT =       9.7500E-02

          STORAGE:                                 STORAGE:
          --------                                 --------
      STORAGE CHANGE =      512864.1946        STORAGE CHANGE =       9.7500E-02

 PERCENT DISCREPANCY IS DIFFERENCE BETWEEN IN-OUT MINUS CHANGE IN STORAGE
 DIVIDED BY THE AVERAGE OF IN AND OUT TIMES 100

 PERCENT DISCREPANCY =          -0.00     PERCENT DISCREPANCY =           0.00






1
  VOLUMETRIC BUDGET FOR AGRICULTURAL FIELDS AT  END OF TIME STEP   30, STRESS PERIOD   3
  ------------------------------------------------------------------------------

     CUMULATIVE VOLUMES      L**3       RATES FOR THIS TIME STEP      L**3/T
     ------------------                 ------------------------

           IN:                                      IN:
           ---                                      ---
               AG WELLS  =           0.0000                 AG WELLS  =           0.0000
      DIVERSION SEGMENTS =           0.0000        DIVERSION SEGMENTS =           0.0000
       IRRIGATION PONDS  =           0.0000         IRRIGATION PONDS  =           0.0000
           GW IRRIGATION =           0.0000             GW IRRIGATION =           0.0000
           SW IRRIGATION =           0.0000             SW IRRIGATION =           0.0000
        SYSTEM LOSSES GW =           0.0000          SYSTEM LOSSES GW =           0.0000
        SYSTEM LOSSES SW =           0.0000          SYSTEM LOSSES SW =           0.0000

                TOTAL IN =           0.0000                  TOTAL IN =           0.0000

          OUT:                                     OUT:
          ----                                     ----
               AG WELLS  =           0.0000                 AG WELLS  =           0.0000
      DIVERSION SEGMENTS =           0.0000        DIVERSION SEGMENTS =           0.0000
       IRRIGATION PONDS  =           0.0000         IRRIGATION PONDS  =           0.0000
           GW IRRIGATION =           0.0000             GW IRRIGATION =           0.0000
           SW IRRIGATION =           0.0000             SW IRRIGATION =           0.0000
        SYSTEM LOSSES GW =           0.0000          SYSTEM LOSSES GW =           0.0000
        SYSTEM LOSSES SW =           0.0000          SYSTEM LOSSES SW =           0.0000

               TOTAL OUT =           0.0000                 TOTAL OUT =           0.0000

                IN - OUT =           0.0000                  IN - OUT =           0.0000

     PERCENT DISCREPANCY =           0.00         PERCENT DISCREPANCY =           0.00



1
  VOLUMETRIC BUDGET FOR ENTIRE MODEL AT END OF TIME STEP   30, STRESS PERIOD   3
  ------------------------------------------------------------------------------

     CUMULATIVE VOLUMES      L**3       RATES FOR THIS TIME STEP      L**3/T
     ------------------                 ------------------------

           IN:                                      IN:
           ---                                      ---
             STORAGE     =     3101464.7500               STORAGE     =           0.4931
       CONSTANT HEAD     =           0.0000         CONSTANT HEAD     =           0.0000
     HEAD DEP BOUNDS     =     1538702.5000       HEAD DEP BOUNDS     =           0.2878
      STREAM LEAKAGE     =    60993756.0000        STREAM LEAKAGE     =          12.2952
        UZF RECHARGE     =       73223.9531          UZF RECHARGE     =           0.0000
               GW ET     =           0.0000                 GW ET     =           0.0000
     SURFACE LEAKAGE     =           0.0000       SURFACE LEAKAGE     =           0.0000
           AG WELLS      =           0.0000             AG WELLS      =           0.0000

                TOTAL IN =    65707148.0000                  TOTAL IN =          13.0762

          OUT:                                     OUT:
          ----                                     ----
             STORAGE     =     9831364.0000               STORAGE     =           3.3427
       CONSTANT HEAD     =           0.0000         CONSTANT HEAD     =           0.0000
     HEAD DEP BOUNDS     =     1536322.6250       HEAD DEP BOUNDS     =           0.2883
      STREAM LEAKAGE     =    54341368.0000        STREAM LEAKAGE     =           9.4460
        UZF RECHARGE     =           0.0000          UZF RECHARGE     =           0.0000
               GW ET     =           0.0000                 GW ET     =           0.0000
     SURFACE LEAKAGE     =           0.0000       SURFACE LEAKAGE     =           0.0000
           AG WELLS      =           0.0000             AG WELLS      =           0.0000

               TOTAL OUT =    65709056.0000                 TOTAL OUT =          13.0770

                IN - OUT =       -1908.0000                  IN - OUT =      -8.0872E-04

     PERCENT DISCREPANCY =          -0.00         PERCENT DISCREPANCY =          -0.01






         TIME SUMMARY AT END OF TIME STEP   30 IN STRESS PERIOD    3
                    SECONDS     MINUTES      HOURS       DAYS        YEARS
                    -----------------------------------------------------------
   TIME STEP LENGTH  87667.      1461.1      24.352      1.0147     2.77799E-03
 STRESS PERIOD TIME 2.63000E+06  43833.      730.56      30.440     8.33397E-02
         TOTAL TIME 5.34640E+06  89107.      1485.1      61.880     0.16942    
1
1
                            STRESS PERIOD NO.    4, LENGTH =   2630000.    
                            -----------------------------------------------

                              NUMBER OF TIME STEPS =    30

                               MULTIPLIER FOR DELT =     1.000

                            INITIAL TIME STEP SIZE =   87666.66    

 REUSING NON-PARAMETER GHB CELLS FROM LAST STRESS PERIOD

      2 GHB CELLS

 REUSING STREAM SEGMENT DATA FROM LAST STRESS PERIOD



            AREAL INFILTRATION RATE
 READING ON UNIT   19 WITH FORMAT: (FREE)              

            1           2           3           4           5           6           7           8           9          10
 ........................................................................................................................
   1   1.0000E-10  2.0000E-10   0.000       0.000       0.000       0.000       0.000       0.000       0.000       0.000    
   2   2.0000E-10  1.0000E-10  2.0000E-10   0.000       0.000      8.0000E-10  8.0000E-10  5.0000E-10   0.000       0.000    
   3    0.000      5.0000E-10  1.0000E-10  1.0000E-10  8.0000E-10  8.0000E-10  5.0000E-10  5.0000E-10   0.000       0.000    
   4   8.0000E-10  5.0000E-10  1.0000E-10  1.0000E-10  1.0000E-10  1.0000E-10  1.0000E-10  1.0000E-10  2.0000E-10   0.000    
   5   8.0000E-10  5.0000E-10  1.0000E-10  1.0000E-10  1.0000E-10  1.0000E-10  1.0000E-10  1.0000E-10  1.0000E-10  1.0000E-10
   6   8.0000E-10  5.0000E-10  5.0000E-10  2.0000E-10  2.0000E-10  1.0000E-10  1.0000E-10  1.0000E-10  1.0000E-10  5.0000E-10
   7   8.0000E-10  5.0000E-10  5.0000E-10  2.0000E-10  2.0000E-10  1.0000E-10  1.0000E-10  2.0000E-10  2.0000E-10   0.000    
   8    0.000      5.0000E-10  5.0000E-10  2.0000E-10  2.0000E-10  1.0000E-10  1.0000E-10  2.0000E-10  5.0000E-10   0.000    
   9    0.000      5.0000E-10  5.0000E-10  2.0000E-10  2.0000E-10  1.0000E-10  1.0000E-10  2.0000E-10  5.0000E-10   0.000    
  10    0.000      5.0000E-10  5.0000E-10  2.0000E-10  2.0000E-10  1.0000E-10  1.0000E-10  2.0000E-10  5.0000E-10  8.0000E-10
  11    0.000      1.0000E-10  1.0000E-10  1.0000E-10  1.0000E-10  1.0000E-10  1.0000E-10  2.0000E-10  5.0000E-10   0.000    
  12   1.0000E-10  1.0000E-10  1.0000E-10  1.0000E-10  1.0000E-10  1.0000E-10  1.0000E-10  1.0000E-10  2.0000E-10   0.000    
  13   1.0000E-10  1.0000E-10  2.0000E-10  2.0000E-10  2.0000E-10  2.0000E-10  2.0000E-10  1.0000E-10  1.0000E-10   0.000    
  14    0.000      2.0000E-10  5.0000E-10  5.0000E-10  5.0000E-10  5.0000E-10  5.0000E-10  2.0000E-10  1.0000E-10   0.000    
  15    0.000       0.000      8.0000E-10  8.0000E-10  8.0000E-10  8.0000E-10   0.000       0.000       0.000       0.000    

                  ET RATE =  5.000000E-10

 USING ET EXTINCTION DEPTH FROM PREVIOUS STRESS PERIOD. CURRENT PERIOD IS:       4

 USING EXTINCTION WATER CONTENT FROM PREVIOUS STRESS PERIOD. CURRENT PERIOD IS:       4

 USING AIR ENTRY PRESSURE FROM PREVIOUS STRESS PERIOD. CURRENT PERIOD IS:       4

 USING ROOT PRESSURE HEAD FROM PREVIOUS STRESS PERIOD. CURRENT PERIOD IS:       4

 USING ROOT ACTIVITY FROM PREVIOUS STRESS PERIOD. CURRENT PERIOD IS:       4

 PROCESSING AG STRESS PERIOD DATA

 READING AG STRESS PERIOD DATA

 READING IRRIGATION SEGMENT

 READING IRRIGATION WELL

 READING SUPPLEMENTAL WELL

 NO IRRPOND OR REUSING IRRPOND DATA FROM LAST STRESS PERIOD

 END PROCESSING AG STRESS PERIOD DATA OPTIONS
 
 SOLVING FOR HEAD 
                                                   Max.-Head-Change                         Max.-Flux-Residual
  Residual-Control   Outer-Iter.   Inner-Iter.     Column Row Layer    Maximum-Head-Change  Column Row Layer    Maximum-Flux-Residual          L2-NORM 
          0                 1           2             4   13     1       0.4940254060E-02       4   13    1         0.2828335364E+00      0.7295639810E+00
          0                 2           2             4   13     1      -0.4754262552E-03       4   13    1        -0.2798492593E-01      0.7196015433E-01
          0                 3           1             2    2     1       0.3214211446E-04       4   13    1         0.1930053891E-02      0.4944999565E-02

    ------------------------------------------------
       NWT REQUIRED            3 OUTER ITERATIONS 
       AND A TOTAL OF          5 INNER ITERATIONS.
    ------------------------------------------------

 NO OUTPUT CONTROL FOR STRESS PERIOD    4   TIME STEP    1
 
 SOLVING FOR HEAD 
                                                   Max.-Head-Change                         Max.-Flux-Residual
  Residual-Control   Outer-Iter.   Inner-Iter.     Column Row Layer    Maximum-Head-Change  Column Row Layer    Maximum-Flux-Residual          L2-NORM 
          0                 1           2             2    2     1       0.4822157583E-02       4   13    1         0.2567874525E+00      0.7019739491E+00
          0                 2           2             2    2     1      -0.4690653484E-03       4   13    1        -0.2540507498E-01      0.6931303985E-01
          0                 3           1             2    2     1       0.3194160249E-04       2    2    1         0.1762315083E-02      0.4770801368E-02

    ------------------------------------------------
       NWT REQUIRED            3 OUTER ITERATIONS 
       AND A TOTAL OF          5 INNER ITERATIONS.
    ------------------------------------------------

 NO OUTPUT CONTROL FOR STRESS PERIOD    4   TIME STEP    2
 
 SOLVING FOR HEAD 
                                                   Max.-Head-Change                         Max.-Flux-Residual
  Residual-Control   Outer-Iter.   Inner-Iter.     Column Row Layer    Maximum-Head-Change  Column Row Layer    Maximum-Flux-Residual          L2-NORM 
          0                 1           2             2    2     1       0.4792218275E-02       2    2    1         0.2501847211E+00      0.6774939908E+00
          0                 2           2             2    2     1      -0.4661530540E-03       2    2    1        -0.2501853140E-01      0.6696501458E-01
          0                 3           1             2    2     1       0.3174328639E-04       2    2    1         0.1751297400E-02      0.4614591764E-02

    ------------------------------------------------
       NWT REQUIRED            3 OUTER ITERATIONS 
       AND A TOTAL OF          5 INNER ITERATIONS.
    ------------------------------------------------

 NO OUTPUT CONTROL FOR STRESS PERIOD    4   TIME STEP    3
 
 SOLVING FOR HEAD 
                                                   Max.-Head-Change                         Max.-Flux-Residual
  Residual-Control   Outer-Iter.   Inner-Iter.     Column Row Layer    Maximum-Head-Change  Column Row Layer    Maximum-Flux-Residual          L2-NORM 
          0                 1           2             2    2     1       0.4762604938E-02       2    2    1         0.2486279630E+00      0.6557715732E+00
          0                 2           2             2    2     1      -0.4632724675E-03       2    2    1        -0.2486285453E-01      0.6488331357E-01
          0                 3           1             2    2     1       0.3154712850E-04       2    2    1         0.1740399999E-02      0.4477532787E-02

    ------------------------------------------------
       NWT REQUIRED            3 OUTER ITERATIONS 
       AND A TOTAL OF          5 INNER ITERATIONS.
    ------------------------------------------------

 NO OUTPUT CONTROL FOR STRESS PERIOD    4   TIME STEP    4
 
 SOLVING FOR HEAD 
                                                   Max.-Head-Change                         Max.-Flux-Residual
  Residual-Control   Outer-Iter.   Inner-Iter.     Column Row Layer    Maximum-Head-Change  Column Row Layer    Maximum-Flux-Residual          L2-NORM 
          0                 1           2             2    2     1       0.4733481710E-02       2    2    1         0.2470969832E+00      0.6364937839E+00
          0                 2           2             2    2     1      -0.4604395563E-03       2    2    1        -0.2470975552E-01      0.6303669227E-01
          0                 3           1             2    2     1       0.3135421848E-04       2    2    1         0.1729683089E-02      0.4356112170E-02

    ------------------------------------------------
       NWT REQUIRED            3 OUTER ITERATIONS 
       AND A TOTAL OF          5 INNER ITERATIONS.
    ------------------------------------------------

 NO OUTPUT CONTROL FOR STRESS PERIOD    4   TIME STEP    5
 
 SOLVING FOR HEAD 
                                                   Max.-Head-Change                         Max.-Flux-Residual
  Residual-Control   Outer-Iter.   Inner-Iter.     Column Row Layer    Maximum-Head-Change  Column Row Layer    Maximum-Flux-Residual          L2-NORM 
          0                 1           2             2    2     1       0.4704671723E-02       2    2    1         0.2455825377E+00      0.6193639979E+00
          0                 2           2             2    2     1      -0.4576371155E-03       2    2    1        -0.2455830999E-01      0.6139710657E-01
          0                 3           1             2    2     1       0.3116338291E-04       2    2    1         0.1719081920E-02      0.4248789101E-02

    ------------------------------------------------
       NWT REQUIRED            3 OUTER ITERATIONS 
       AND A TOTAL OF          5 INNER ITERATIONS.
    ------------------------------------------------

 NO OUTPUT CONTROL FOR STRESS PERIOD    4   TIME STEP    6
 
 SOLVING FOR HEAD 
                                                   Max.-Head-Change                         Max.-Flux-Residual
  Residual-Control   Outer-Iter.   Inner-Iter.     Column Row Layer    Maximum-Head-Change  Column Row Layer    Maximum-Flux-Residual          L2-NORM 
          0                 1           2             2    2     1       0.4676254724E-02       2    2    1         0.2440887720E+00      0.6041379785E+00
          0                 2           2             2    2     1      -0.4548729011E-03       2    2    1        -0.2440893243E-01      0.5993787656E-01
          0                 3           1             2    2     1       0.3097515027E-04       2    2    1         0.1708625487E-02      0.4151729320E-02

    ------------------------------------------------
       NWT REQUIRED            3 OUTER ITERATIONS 
       AND A TOTAL OF          5 INNER ITERATIONS.
    ------------------------------------------------

 NO OUTPUT CONTROL FOR STRESS PERIOD    4   TIME STEP    7
 
 SOLVING FOR HEAD 
                                                   Max.-Head-Change                         Max.-Flux-Residual
  Residual-Control   Outer-Iter.   Inner-Iter.     Column Row Layer    Maximum-Head-Change  Column Row Layer    Maximum-Flux-Residual          L2-NORM 
          0                 1           2             2    2     1       0.4648224625E-02       2    2    1         0.2426153824E+00      0.5905842825E+00
          0                 2           2             2    2     1      -0.4521463224E-03       2    2    1        -0.2426159251E-01      0.5864016789E-01
          0                 3           1             2    2     1       0.3078948032E-04       2    2    1         0.1698311696E-02      0.4066779503E-02

    ------------------------------------------------
       NWT REQUIRED            3 OUTER ITERATIONS 
       AND A TOTAL OF          5 INNER ITERATIONS.
    ------------------------------------------------

 NO OUTPUT CONTROL FOR STRESS PERIOD    4   TIME STEP    8
 
 SOLVING FOR HEAD 
                                                   Max.-Head-Change                         Max.-Flux-Residual
  Residual-Control   Outer-Iter.   Inner-Iter.     Column Row Layer    Maximum-Head-Change  Column Row Layer    Maximum-Flux-Residual          L2-NORM 
          0                 1           2             2    2     1       0.4620490796E-02       2    2    1         0.2411576139E+00      0.5784936515E+00
          0                 2           2             2    2     1      -0.4494485629E-03       2    2    1        -0.2411581473E-01      0.5748079373E-01
          0                 3           1             2    2     1       0.3060577287E-04       2    2    1         0.1688107249E-02      0.3990009837E-02

    ------------------------------------------------
       NWT REQUIRED            3 OUTER ITERATIONS 
       AND A TOTAL OF          5 INNER ITERATIONS.
    ------------------------------------------------

 NO OUTPUT CONTROL FOR STRESS PERIOD    4   TIME STEP    9
 
 SOLVING FOR HEAD 
                                                   Max.-Head-Change                         Max.-Flux-Residual
  Residual-Control   Outer-Iter.   Inner-Iter.     Column Row Layer    Maximum-Head-Change  Column Row Layer    Maximum-Flux-Residual          L2-NORM 
          0                 1           2             2    2     1       0.4593217499E-02       2    2    1         0.2397240851E+00      0.5676879250E+00
          0                 2           2             2    2     1      -0.4467956013E-03       2    2    1        -0.2397246095E-01      0.5644239693E-01
          0                 3           1             2    2     1       0.3042511661E-04       2    2    1         0.1678072501E-02      0.3919705557E-02

    ------------------------------------------------
       NWT REQUIRED            3 OUTER ITERATIONS 
       AND A TOTAL OF          5 INNER ITERATIONS.
    ------------------------------------------------

 NO OUTPUT CONTROL FOR STRESS PERIOD    4   TIME STEP   10
 
 SOLVING FOR HEAD 
                                                   Max.-Head-Change                         Max.-Flux-Residual
  Residual-Control   Outer-Iter.   Inner-Iter.     Column Row Layer    Maximum-Head-Change  Column Row Layer    Maximum-Flux-Residual          L2-NORM 
          0                 1           2             2    2     1       0.4566229086E-02       2    2    1         0.2383055556E+00      0.5580164441E+00
          0                 2           2             2    2     1      -0.4441703509E-03       2    2    1        -0.2383060709E-01      0.5551733647E-01
          0                 3           1             2    2     1       0.3024634664E-04       2    2    1         0.1668142728E-02      0.3860730970E-02

    ------------------------------------------------
       NWT REQUIRED            3 OUTER ITERATIONS 
       AND A TOTAL OF          5 INNER ITERATIONS.
    ------------------------------------------------

 NO OUTPUT CONTROL FOR STRESS PERIOD    4   TIME STEP   11
 
 SOLVING FOR HEAD 
                                                   Max.-Head-Change                         Max.-Flux-Residual
  Residual-Control   Outer-Iter.   Inner-Iter.     Column Row Layer    Maximum-Head-Change  Column Row Layer    Maximum-Flux-Residual          L2-NORM 
          0                 1           2             2    2     1       0.4539604724E-02       2    2    1         0.2369062365E+00      0.5493256300E+00
          0                 2           2             2    2     1      -0.4415805133E-03       2    2    1        -0.2369067432E-01      0.5468243130E-01
          0                 3           1             2    2     1       0.3006998813E-04       2    2    1         0.1658347432E-02      0.3805047756E-02

    ------------------------------------------------
       NWT REQUIRED            3 OUTER ITERATIONS 
       AND A TOTAL OF          5 INNER ITERATIONS.
    ------------------------------------------------

 NO OUTPUT CONTROL FOR STRESS PERIOD    4   TIME STEP   12
 
 SOLVING FOR HEAD 
                                                   Max.-Head-Change                         Max.-Flux-Residual
  Residual-Control   Outer-Iter.   Inner-Iter.     Column Row Layer    Maximum-Head-Change  Column Row Layer    Maximum-Flux-Residual          L2-NORM 
          0                 1           2             2    2     1       0.4513339485E-02       2    2    1         0.2355257930E+00      0.5415016453E+00
          0                 2           2             2    2     1      -0.4390256092E-03       2    2    1        -0.2355262914E-01      0.5393060692E-01
          0                 3           1             2    2     1       0.2989600890E-04       2    2    1         0.1648684272E-02      0.3755331928E-02

    ------------------------------------------------
       NWT REQUIRED            3 OUTER ITERATIONS 
       AND A TOTAL OF          5 INNER ITERATIONS.
    ------------------------------------------------

 NO OUTPUT CONTROL FOR STRESS PERIOD    4   TIME STEP   13
 
 SOLVING FOR HEAD 
                                                   Max.-Head-Change                         Max.-Flux-Residual
  Residual-Control   Outer-Iter.   Inner-Iter.     Column Row Layer    Maximum-Head-Change  Column Row Layer    Maximum-Flux-Residual          L2-NORM 
          0                 1           2             2    2     1       0.4487427826E-02       2    2    1         0.2341639697E+00      0.5344406390E+00
          0                 2           2             2    2     1      -0.4365050985E-03       2    2    1        -0.2341644594E-01      0.5325071536E-01
          0                 3           1             2    2     1       0.2972437179E-04       2    2    1         0.1639151456E-02      0.3710082794E-02

    ------------------------------------------------
       NWT REQUIRED            3 OUTER ITERATIONS 
       AND A TOTAL OF          5 INNER ITERATIONS.
    ------------------------------------------------

 NO OUTPUT CONTROL FOR STRESS PERIOD    4   TIME STEP   14
 
 SOLVING FOR HEAD 
                                                   Max.-Head-Change                         Max.-Flux-Residual
  Residual-Control   Outer-Iter.   Inner-Iter.     Column Row Layer    Maximum-Head-Change  Column Row Layer    Maximum-Flux-Residual          L2-NORM 
          0                 1           2             2    2     1       0.4461780033E-02       2    2    1         0.2328160390E+00      0.5280411374E+00
          0                 2           2             2    2     1      -0.4340102553E-03       2    2    1        -0.2328165206E-01      0.5263365072E-01
          0                 3           1             2    2     1       0.2955448250E-04       2    2    1         0.1629715893E-02      0.3668517790E-02

    ------------------------------------------------
       NWT REQUIRED            3 OUTER ITERATIONS 
       AND A TOTAL OF          5 INNER ITERATIONS.
    ------------------------------------------------

 NO OUTPUT CONTROL FOR STRESS PERIOD    4   TIME STEP   15
 
 SOLVING FOR HEAD 
                                                   Max.-Head-Change                         Max.-Flux-Residual
  Residual-Control   Outer-Iter.   Inner-Iter.     Column Row Layer    Maximum-Head-Change  Column Row Layer    Maximum-Flux-Residual          L2-NORM 
          0                 1           2             2    2     1       0.4436475633E-02       2    2    1         0.2314862295E+00      0.5222152298E+00
          0                 2           2             2    2     1      -0.4315488156E-03       2    2    1        -0.2314867034E-01      0.5207205197E-01
          0                 3           1             2    2     1       0.2938686765E-04       2    2    1         0.1620407179E-02      0.3631164256E-02

    ------------------------------------------------
       NWT REQUIRED            3 OUTER ITERATIONS 
       AND A TOTAL OF          5 INNER ITERATIONS.
    ------------------------------------------------

 NO OUTPUT CONTROL FOR STRESS PERIOD    4   TIME STEP   16
 
 SOLVING FOR HEAD 
                                                   Max.-Head-Change                         Max.-Flux-Residual
  Residual-Control   Outer-Iter.   Inner-Iter.     Column Row Layer    Maximum-Head-Change  Column Row Layer    Maximum-Flux-Residual          L2-NORM 
          0                 1           2             2    2     1       0.4411510040E-02       2    2    1         0.2301742244E+00      0.5168939270E+00
          0                 2           2             2    2     1      -0.4291203322E-03       2    2    1        -0.2301746904E-01      0.5155762869E-01
          0                 3           1             2    2     1       0.2922149717E-04       2    2    1         0.1611223097E-02      0.3597045539E-02

    ------------------------------------------------
       NWT REQUIRED            3 OUTER ITERATIONS 
       AND A TOTAL OF          5 INNER ITERATIONS.
    ------------------------------------------------

 NO OUTPUT CONTROL FOR STRESS PERIOD    4   TIME STEP   17
 
 SOLVING FOR HEAD 
                                                   Max.-Head-Change                         Max.-Flux-Residual
  Residual-Control   Outer-Iter.   Inner-Iter.     Column Row Layer    Maximum-Head-Change  Column Row Layer    Maximum-Flux-Residual          L2-NORM 
          0                 1           2             2    2     1       0.4386877703E-02       2    2    1         0.2288797862E+00      0.5120294248E+00
          0                 2           2             2    2     1      -0.4267242657E-03       2    2    1        -0.2288802445E-01      0.5108618150E-01
          0                 3           1             2    2     1       0.2905833367E-04       2    2    1         0.1602161971E-02      0.3565162153E-02

    ------------------------------------------------
       NWT REQUIRED            3 OUTER ITERATIONS 
       AND A TOTAL OF          5 INNER ITERATIONS.
    ------------------------------------------------

 NO OUTPUT CONTROL FOR STRESS PERIOD    4   TIME STEP   18
 
 SOLVING FOR HEAD 
                                                   Max.-Head-Change                         Max.-Flux-Residual
  Residual-Control   Outer-Iter.   Inner-Iter.     Column Row Layer    Maximum-Head-Change  Column Row Layer    Maximum-Flux-Residual          L2-NORM 
          0                 1           2             2    2     1       0.4362573845E-02       2    2    1         0.2276026270E+00      0.5075546267E+00
          0                 2           2             2    2     1      -0.4243601519E-03       2    2    1        -0.2276030779E-01      0.5065320008E-01
          0                 3           1             2    2     1       0.2889734662E-04       2    2    1         0.1593221805E-02      0.3536293280E-02

    ------------------------------------------------
       NWT REQUIRED            3 OUTER ITERATIONS 
       AND A TOTAL OF          5 INNER ITERATIONS.
    ------------------------------------------------

 NO OUTPUT CONTROL FOR STRESS PERIOD    4   TIME STEP   19
 
 SOLVING FOR HEAD 
                                                   Max.-Head-Change                         Max.-Flux-Residual
  Residual-Control   Outer-Iter.   Inner-Iter.     Column Row Layer    Maximum-Head-Change  Column Row Layer    Maximum-Flux-Residual          L2-NORM 
          0                 1           2             2    2     1       0.4338508452E-02       2    2    1         0.2263380583E+00      0.5034377484E+00
          0                 2           2             2    2     1      -0.4220192344E-03       2    2    1        -0.2263385019E-01      0.5025361756E-01
          0                 3           1             2    2     1       0.2873793842E-04       2    2    1         0.1584369763E-02      0.3509737241E-02

    ------------------------------------------------
       NWT REQUIRED            3 OUTER ITERATIONS 
       AND A TOTAL OF          5 INNER ITERATIONS.
    ------------------------------------------------

 NO OUTPUT CONTROL FOR STRESS PERIOD    4   TIME STEP   20
 
 SOLVING FOR HEAD 
                                                   Max.-Head-Change                         Max.-Flux-Residual
  Residual-Control   Outer-Iter.   Inner-Iter.     Column Row Layer    Maximum-Head-Change  Column Row Layer    Maximum-Flux-Residual          L2-NORM 
          0                 1           2             2    2     1       0.4314847168E-02       2    2    1         0.2250947353E+00      0.4996133819E+00
          0                 2           2             2    2     1      -0.4197176259E-03       2    2    1        -0.2250951718E-01      0.4988202170E-01
          0                 3           1             2    2     1       0.2858120793E-04       2    2    1         0.1575666462E-02      0.3484505145E-02

    ------------------------------------------------
       NWT REQUIRED            3 OUTER ITERATIONS 
       AND A TOTAL OF          5 INNER ITERATIONS.
    ------------------------------------------------

 NO OUTPUT CONTROL FOR STRESS PERIOD    4   TIME STEP   21
 
 SOLVING FOR HEAD 
                                                   Max.-Head-Change                         Max.-Flux-Residual
  Residual-Control   Outer-Iter.   Inner-Iter.     Column Row Layer    Maximum-Head-Change  Column Row Layer    Maximum-Flux-Residual          L2-NORM 
          0                 1           2             2    2     1       0.4291414479E-02       2    2    1         0.2238634830E+00      0.4960630000E+00
          0                 2           2             2    2     1      -0.4174382541E-03       2    2    1        -0.2238639126E-01      0.4953555933E-01
          0                 3           1             2    2     1       0.2842599145E-04       2    2    1         0.1567047673E-02      0.3460935748E-02

    ------------------------------------------------
       NWT REQUIRED            3 OUTER ITERATIONS 
       AND A TOTAL OF          5 INNER ITERATIONS.
    ------------------------------------------------

 NO OUTPUT CONTROL FOR STRESS PERIOD    4   TIME STEP   22
 
 SOLVING FOR HEAD 
                                                   Max.-Head-Change                         Max.-Flux-Residual
  Residual-Control   Outer-Iter.   Inner-Iter.     Column Row Layer    Maximum-Head-Change  Column Row Layer    Maximum-Flux-Residual          L2-NORM 
          0                 1           2             2    2     1       0.4268291955E-02       2    2    1         0.2226485241E+00      0.4927558579E+00
          0                 2           2             2    2     1      -0.4151890524E-03       2    2    1        -0.2226489467E-01      0.4921288649E-01
          0                 3           1             2    2     1       0.2827282929E-04       2    2    1         0.1558542905E-02      0.3439051360E-02

    ------------------------------------------------
       NWT REQUIRED            3 OUTER ITERATIONS 
       AND A TOTAL OF          5 INNER ITERATIONS.
    ------------------------------------------------

 NO OUTPUT CONTROL FOR STRESS PERIOD    4   TIME STEP   23
 
 SOLVING FOR HEAD 
                                                   Max.-Head-Change                         Max.-Flux-Residual
  Residual-Control   Outer-Iter.   Inner-Iter.     Column Row Layer    Maximum-Head-Change  Column Row Layer    Maximum-Flux-Residual          L2-NORM 
          0                 1           2             2    2     1       0.4245474501E-02       2    2    1         0.2214496470E+00      0.4896634156E+00
          0                 2           2             2    2     1      -0.4129695262E-03       2    2    1        -0.2214500630E-01      0.4890999654E-01
          0                 3           1             2    2     1       0.2812168760E-04       2    2    1         0.1550150717E-02      0.3418764024E-02

    ------------------------------------------------
       NWT REQUIRED            3 OUTER ITERATIONS 
       AND A TOTAL OF          5 INNER ITERATIONS.
    ------------------------------------------------

 NO OUTPUT CONTROL FOR STRESS PERIOD    4   TIME STEP   24
 
 SOLVING FOR HEAD 
                                                   Max.-Head-Change                         Max.-Flux-Residual
  Residual-Control   Outer-Iter.   Inner-Iter.     Column Row Layer    Maximum-Head-Change  Column Row Layer    Maximum-Flux-Residual          L2-NORM 
          0                 1           2             2    2     1       0.4222872837E-02       2    2    1         0.2202621459E+00      0.4867598423E+00
          0                 2           2             2    2     1      -0.4107709911E-03       2    2    1        -0.2202625555E-01      0.4862614022E-01
          0                 3           1             2    2     1       0.2797197567E-04       2    2    1         0.1541838174E-02      0.3398971447E-02

    ------------------------------------------------
       NWT REQUIRED            3 OUTER ITERATIONS 
       AND A TOTAL OF          5 INNER ITERATIONS.
    ------------------------------------------------

 NO OUTPUT CONTROL FOR STRESS PERIOD    4   TIME STEP   25
 
 SOLVING FOR HEAD 
                                                   Max.-Head-Change                         Max.-Flux-Residual
  Residual-Control   Outer-Iter.   Inner-Iter.     Column Row Layer    Maximum-Head-Change  Column Row Layer    Maximum-Flux-Residual          L2-NORM 
          0                 1           2             2    2     1       0.4200652667E-02       2    2    1         0.2190947162E+00      0.4840164055E+00
          0                 2           2             2    2     1      -0.4086095643E-03       2    2    1        -0.2190951193E-01      0.4835785523E-01
          0                 3           1             2    2     1       0.2782479069E-04       2    2    1         0.1533666110E-02      0.3380996787E-02

    ------------------------------------------------
       NWT REQUIRED            3 OUTER ITERATIONS 
       AND A TOTAL OF          5 INNER ITERATIONS.
    ------------------------------------------------

 NO OUTPUT CONTROL FOR STRESS PERIOD    4   TIME STEP   26
 
 SOLVING FOR HEAD 
                                                   Max.-Head-Change                         Max.-Flux-Residual
  Residual-Control   Outer-Iter.   Inner-Iter.     Column Row Layer    Maximum-Head-Change  Column Row Layer    Maximum-Flux-Residual          L2-NORM 
          0                 1           2             2    2     1       0.4178639160E-02       2    2    1         0.2179381834E+00      0.4814391590E+00
          0                 2           2             2    2     1      -0.4064682415E-03       2    2    1        -0.2179385804E-01      0.4810489317E-01
          0                 3           1             2    2     1       0.2767897487E-04       2    2    1         0.1525570355E-02      0.3363678767E-02

    ------------------------------------------------
       NWT REQUIRED            3 OUTER ITERATIONS 
       AND A TOTAL OF          5 INNER ITERATIONS.
    ------------------------------------------------

 NO OUTPUT CONTROL FOR STRESS PERIOD    4   TIME STEP   27
 
 SOLVING FOR HEAD 
                                                   Max.-Head-Change                         Max.-Flux-Residual
  Residual-Control   Outer-Iter.   Inner-Iter.     Column Row Layer    Maximum-Head-Change  Column Row Layer    Maximum-Flux-Residual          L2-NORM 
          0                 1           2             2    2     1       0.4156913551E-02       2    2    1         0.2167968075E+00      0.4789933315E+00
          0                 2           2             2    2     1      -0.4043549225E-03       2    2    1        -0.2167971982E-01      0.4786439523E-01
          0                 3           1             2    2     1       0.2753506545E-04       2    2    1         0.1517580677E-02      0.3347339350E-02

    ------------------------------------------------
       NWT REQUIRED            3 OUTER ITERATIONS 
       AND A TOTAL OF          5 INNER ITERATIONS.
    ------------------------------------------------

 NO OUTPUT CONTROL FOR STRESS PERIOD    4   TIME STEP   28
 
 SOLVING FOR HEAD 
                                                   Max.-Head-Change                         Max.-Flux-Residual
  Residual-Control   Outer-Iter.   Inner-Iter.     Column Row Layer    Maximum-Head-Change  Column Row Layer    Maximum-Flux-Residual          L2-NORM 
          0                 1           2             2    2     1       0.4135471841E-02       2    2    1         0.2156703588E+00      0.4766663408E+00
          0                 2           2             2    2     1      -0.4022692199E-03       2    2    1        -0.2156707436E-01      0.4763557775E-01
          0                 3           1             2    2     1       0.2739303687E-04       2    2    1         0.1509695497E-02      0.3372475522E-02

    ------------------------------------------------
       NWT REQUIRED            3 OUTER ITERATIONS 
       AND A TOTAL OF          5 INNER ITERATIONS.
    ------------------------------------------------

 NO OUTPUT CONTROL FOR STRESS PERIOD    4   TIME STEP   29
 
 SOLVING FOR HEAD 
                                                   Max.-Head-Change                         Max.-Flux-Residual
  Residual-Control   Outer-Iter.   Inner-Iter.     Column Row Layer    Maximum-Head-Change  Column Row Layer    Maximum-Flux-Residual          L2-NORM 
          0                 1           2             2    2     1       0.3369543325E-02       2    2    1         0.1756372830E+00      0.4352889761E+00
          0                 2           2             2    2     1      -0.3277650367E-03       2    2    1        -0.1756375192E-01      0.4340655926E-01
          0                 3           1             2    2     1       0.2231958058E-04       2    2    1         0.1229462943E-02      0.3027373875E-02

    ------------------------------------------------
       NWT REQUIRED            3 OUTER ITERATIONS 
       AND A TOTAL OF          5 INNER ITERATIONS.
    ------------------------------------------------

 NO OUTPUT CONTROL FOR STRESS PERIOD    4   TIME STEP   30



 STREAM LISTING     PERIOD      4   STEP       30

 LAYER ROW COL. STREAM  RCH.  FLOW INTO     FLOW TO   FLOW OUT OF   OVRLND.     DIRECT     STREAM       STREAM     STREAM     STREAM   STREAMBED  STREAMBED
                SEG.NO.  NO.  STRM. RCH.    AQUIFER    STRM. RCH.    RUNOFF     PRECIP       ET          HEAD       DEPTH      WIDTH   CONDCTNC.   GRADIENT

   1    1    1     1     1    2.3343E+01  2.3738E-01   2.3105E+01  0.000E+00  0.000E+00  0.000E+00  1.09420E+03  1.153E+00  1.270E+01  5.716E-02  1.384E+00
   1    2    2     1     2    2.3105E+01  3.6700E-01   2.2738E+01  0.000E+00  0.000E+00  0.000E+00  1.08921E+03  1.148E+00  1.264E+01  8.847E-02  1.383E+00
   1    3    3     1     3    2.2738E+01  3.1238E-01   2.2426E+01  0.000E+00  0.000E+00  0.000E+00  1.08356E+03  1.143E+00  1.257E+01  7.540E-02  1.381E+00
   1    3    4     1     4    2.2426E+01  2.8716E-01   2.2139E+01  0.000E+00  0.000E+00  0.000E+00  1.07855E+03  1.138E+00  1.250E+01  6.939E-02  1.379E+00
   1    4    5     2     1    2.0139E+01  3.1634E-01   1.9822E+01  0.000E+00  0.000E+00  0.000E+00  1.07299E+03  1.056E+00  1.200E+01  7.800E-02  1.352E+00
   1    5    6     2     2    1.9822E+01  2.4280E-01   1.9580E+01  0.000E+00  0.000E+00  0.000E+00  1.06756E+03  1.047E+00  1.200E+01  6.000E-02  1.349E+00
   1    6    6     2     3    1.9580E+01  2.4234E-01   1.9337E+01  0.000E+00  0.000E+00  0.000E+00  1.06283E+03  1.039E+00  1.200E+01  6.000E-02  1.346E+00
   1    7    6     2     4    1.9337E+01  2.4187E-01   1.9095E+01  0.000E+00  0.000E+00  0.000E+00  1.05811E+03  1.031E+00  1.200E+01  6.000E-02  1.344E+00
   1    8    6     2     5    1.9095E+01  2.4140E-01   1.8854E+01  0.000E+00  0.000E+00  0.000E+00  1.05338E+03  1.023E+00  1.200E+01  6.000E-02  1.341E+00
   1    3    5     3     1    2.0000E+00  2.8252E-01   1.7175E+00  0.000E+00  0.000E+00  0.000E+00  1.07555E+03  1.909E+00  9.636E+00  7.227E-02  1.955E+00
   1    3    6     3     2    1.7175E+00  2.4905E-01   1.4684E+00  0.000E+00  0.000E+00  0.000E+00  1.07264E+03  1.727E+00  8.909E+00  6.682E-02  1.864E+00
   1    3    7     3     3    1.4684E+00  1.9718E-01   1.2712E+00  0.000E+00  0.000E+00  0.000E+00  1.06987E+03  1.555E+00  8.218E+00  5.547E-02  1.777E+00
   1    4    8     3     4    1.2712E+00  2.2567E-01   1.0456E+00  0.000E+00  0.000E+00  0.000E+00  1.06682E+03  1.364E+00  7.455E+00  6.709E-02  1.682E+00
   1    5    8     3     5    1.0456E+00  1.5790E-01   8.8768E-01  0.000E+00  0.000E+00  0.000E+00  1.06362E+03  1.164E+00  6.655E+00  4.991E-02  1.582E+00
   1    6    8     3     6    8.8768E-01  5.5980E-02   8.3170E-01  0.000E+00  0.000E+00  0.000E+00  1.06158E+03  1.036E+00  6.145E+00  1.844E-02  1.518E+00
   1    5   10     4     1    1.0000E+01  9.0919E-02   9.9091E+00  0.000E+00  0.000E+00  0.000E+00  1.07836E+03  6.368E-01  1.000E+01  2.500E-02  1.212E+00
   1    5    9     4     2    9.9091E+00  1.8158E-01   9.7275E+00  0.000E+00  0.000E+00  0.000E+00  1.07154E+03  6.315E-01  1.000E+01  5.000E-02  1.211E+00
   1    6    8     4     3    9.7275E+00  1.2689E-01   9.6006E+00  0.000E+00  0.000E+00  0.000E+00  1.06381E+03  6.256E-01  1.000E+01  3.500E-02  1.209E+00
   1    6    8     5     1    1.0432E+01  2.2686E-01   1.0205E+01  0.000E+00  0.000E+00  0.000E+00  1.05868E+03  6.790E-01  1.542E+01  6.166E-02  1.226E+00
   1    7    7     5     2    1.0205E+01  2.7894E-01   9.9265E+00  0.000E+00  0.000E+00  0.000E+00  1.05417E+03  6.732E-01  1.519E+01  7.594E-02  1.224E+00
   1    8    7     5     3    9.9265E+00  1.9221E-01   9.7343E+00  0.000E+00  0.000E+00  0.000E+00  1.04992E+03  6.676E-01  1.497E+01  5.241E-02  1.223E+00
   1    8    6     5     4    9.7343E+00  1.3577E-01   9.5985E+00  0.000E+00  0.000E+00  0.000E+00  1.04691E+03  6.637E-01  1.482E+01  3.706E-02  1.221E+00
   1    9    6     6     1    2.8452E+01  2.5896E-01   2.8194E+01  0.000E+00  0.000E+00  0.000E+00  1.04404E+03  1.316E+00  1.200E+01  6.000E-02  1.439E+00
   1   10    7     6     2    2.8194E+01  2.5853E-01   2.7935E+01  0.000E+00  0.000E+00  0.000E+00  1.03949E+03  1.309E+00  1.200E+01  6.000E-02  1.436E+00
   1   11    7     6     3    2.7935E+01  2.5809E-01   2.7677E+01  0.000E+00  0.000E+00  0.000E+00  1.03494E+03  1.302E+00  1.200E+01  6.000E-02  1.434E+00
   1   12    7     6     4    2.7677E+01  2.5766E-01   2.7419E+01  0.000E+00  0.000E+00  0.000E+00  1.03039E+03  1.294E+00  1.200E+01  6.000E-02  1.431E+00
   1   13    7     6     5    2.7419E+01  8.2030E-03   2.7411E+01  0.000E+00  0.000E+00  0.000E+00  1.02720E+03  1.291E+00  1.200E+01  2.400E-02  1.139E-01
   1   14    9     7     1    1.5000E+02  1.3670E+00   1.4863E+02  0.000E+00  0.000E+00  0.000E+00  1.03987E+03  2.288E+00  5.529E+01  5.593E-01  8.147E-01
   1   13    8     7     2    1.4863E+02  1.9172E+00   1.4672E+02  0.000E+00  0.000E+00  0.000E+00  1.03478E+03  2.279E+00  5.526E+01  6.148E-01  1.040E+00
   1   13    7     7     3    1.4672E+02  1.5809E+00   1.4513E+02  0.000E+00  0.000E+00  0.000E+00  1.02969E+03  2.270E+00  5.521E+01  5.584E-01  9.437E-01
   1   13    6     8     1    1.7255E+02  1.0238E+00   1.7152E+02  0.000E+00  0.000E+00  0.000E+00  1.02484E+03  2.965E+00  4.300E+01  4.382E-01  7.788E-01
   1   13    5     8     2    1.7152E+02  2.5244E-01   1.7127E+02  0.000E+00  0.000E+00  0.000E+00  1.01859E+03  2.961E+00  4.294E+01  4.376E-01  1.923E-01
   1   13    4     8     3    1.7127E+02 -2.2862E+00   1.7356E+02  0.000E+00  0.000E+00  0.000E+00  1.01234E+03  2.968E+00  4.303E+01  4.385E+00 -1.738E-01
   1   13    3     8     4    1.7356E+02 -3.5976E+00   1.7715E+02  0.000E+00  0.000E+00  0.000E+00  1.00611E+03  2.987E+00  4.331E+01  4.413E+00 -2.717E-01
   1   13    2     8     5    1.7715E+02 -2.6042E+00   1.7976E+02  0.000E+00  0.000E+00  0.000E+00  9.99881E+02  3.006E+00  4.359E+01  4.442E+00 -1.954E-01
   1   13    1     8     6    1.7976E+02 -1.9818E+00   1.8174E+02  0.000E+00  0.000E+00  0.000E+00  9.94896E+02  3.021E+00  4.380E+01  2.678E+00 -2.467E-01
   1    8    6     9     1    0.0000E+00  0.0000E+00   0.0000E+00  0.000E+00  0.000E+00  0.000E+00  1.07875E+03  0.000E+00  4.000E+00  0.000E+00  1.000E+00
   1    8    5     9     2    0.0000E+00  0.0000E+00   0.0000E+00  0.000E+00  0.000E+00  0.000E+00  1.07825E+03  0.000E+00  4.000E+00  0.000E+00  1.000E+00





UNSATURATED ZONE PACKAGE VOLUMETRIC BUDGET FOR  TIME STEP    30 STRESS PERIOD    4
  ------------------------------------------------------------------------------



     CUMULATIVE VOLUMES      L**3       RATES FOR THIS TIME STEP      L**3/T
     ------------------                 ------------------------

           IN:                                      IN:
           ---                                      ---
        INFILTRATION =     6759998.6182          INFILTRATION =           0.8475

          OUT:                                     OUT:
          ----                                     ----
              UZF ET =     5917485.4539                UZF ET =           0.7500
        UZF RECHARGE =       73224.0000          UZF RECHARGE =       0.0000E+00

            IN - OUT =      769289.1644              IN - OUT =       9.7500E-02

          STORAGE:                                 STORAGE:
          --------                                 --------
      STORAGE CHANGE =      769289.2225        STORAGE CHANGE =       9.7500E-02

 PERCENT DISCREPANCY IS DIFFERENCE BETWEEN IN-OUT MINUS CHANGE IN STORAGE
 DIVIDED BY THE AVERAGE OF IN AND OUT TIMES 100

 PERCENT DISCREPANCY =           0.00     PERCENT DISCREPANCY =           0.00






1
  VOLUMETRIC BUDGET FOR AGRICULTURAL FIELDS AT  END OF TIME STEP   30, STRESS PERIOD   4
  ------------------------------------------------------------------------------

     CUMULATIVE VOLUMES      L**3       RATES FOR THIS TIME STEP      L**3/T
     ------------------                 ------------------------

           IN:                                      IN:
           ---                                      ---
               AG WELLS  =           0.0000                 AG WELLS  =           0.0000
      DIVERSION SEGMENTS =           0.0000        DIVERSION SEGMENTS =           0.0000
       IRRIGATION PONDS  =           0.0000         IRRIGATION PONDS  =           0.0000
           GW IRRIGATION =           0.0000             GW IRRIGATION =           0.0000
           SW IRRIGATION =           0.0000             SW IRRIGATION =           0.0000
        SYSTEM LOSSES GW =           0.0000          SYSTEM LOSSES GW =           0.0000
        SYSTEM LOSSES SW =           0.0000          SYSTEM LOSSES SW =           0.0000

                TOTAL IN =           0.0000                  TOTAL IN =           0.0000

          OUT:                                     OUT:
          ----                                     ----
               AG WELLS  =           0.0000                 AG WELLS  =           0.0000
      DIVERSION SEGMENTS =           0.0000        DIVERSION SEGMENTS =           0.0000
       IRRIGATION PONDS  =           0.0000         IRRIGATION PONDS  =           0.0000
           GW IRRIGATION =           0.0000             GW IRRIGATION =           0.0000
           SW IRRIGATION =           0.0000             SW IRRIGATION =           0.0000
        SYSTEM LOSSES GW =           0.0000          SYSTEM LOSSES GW =           0.0000
        SYSTEM LOSSES SW =           0.0000          SYSTEM LOSSES SW =           0.0000

               TOTAL OUT =           0.0000                 TOTAL OUT =           0.0000

                IN - OUT =           0.0000                  IN - OUT =           0.0000

     PERCENT DISCREPANCY =           0.00         PERCENT DISCREPANCY =           0.00



1
  VOLUMETRIC BUDGET FOR ENTIRE MODEL AT END OF TIME STEP   30, STRESS PERIOD   4
  ------------------------------------------------------------------------------

     CUMULATIVE VOLUMES      L**3       RATES FOR THIS TIME STEP      L**3/T
     ------------------                 ------------------------

           IN:                                      IN:
           ---                                      ---
             STORAGE     =     4302723.0000               STORAGE     =           0.6662
       CONSTANT HEAD     =           0.0000         CONSTANT HEAD     =           0.0000
     HEAD DEP BOUNDS     =     2295783.0000       HEAD DEP BOUNDS     =           0.2879
      STREAM LEAKAGE     =    93457376.0000        STREAM LEAKAGE     =          12.0729
        UZF RECHARGE     =       73223.9531          UZF RECHARGE     =           0.0000
               GW ET     =           0.0000                 GW ET     =           0.0000
     SURFACE LEAKAGE     =           0.0000       SURFACE LEAKAGE     =           0.0000
           AG WELLS      =           0.0000             AG WELLS      =           0.0000

                TOTAL IN =   100129104.0000                  TOTAL IN =          13.0270

          OUT:                                     OUT:
          ----                                     ----
             STORAGE     =    17553954.0000               STORAGE     =           2.2674
       CONSTANT HEAD     =           0.0000         CONSTANT HEAD     =           0.0000
     HEAD DEP BOUNDS     =     2297699.7500       HEAD DEP BOUNDS     =           0.2902
      STREAM LEAKAGE     =    80281208.0000        STREAM LEAKAGE     =          10.4698
        UZF RECHARGE     =           0.0000          UZF RECHARGE     =           0.0000
               GW ET     =           0.0000                 GW ET     =           0.0000
     SURFACE LEAKAGE     =           0.0000       SURFACE LEAKAGE     =           0.0000
           AG WELLS      =           0.0000             AG WELLS      =           0.0000

               TOTAL OUT =   100132864.0000                 TOTAL OUT =          13.0274

                IN - OUT =       -3760.0000                  IN - OUT =      -4.5490E-04

     PERCENT DISCREPANCY =          -0.00         PERCENT DISCREPANCY =          -0.00






         TIME SUMMARY AT END OF TIME STEP   30 IN STRESS PERIOD    4
                    SECONDS     MINUTES      HOURS       DAYS        YEARS
                    -----------------------------------------------------------
   TIME STEP LENGTH  87667.      1461.1      24.352      1.0147     2.77799E-03
 STRESS PERIOD TIME 2.63000E+06  43833.      730.56      30.440     8.33397E-02
         TOTAL TIME 7.97639E+06 1.32940E+05  2215.7      92.319     0.25276    
1
1
                            STRESS PERIOD NO.    5, LENGTH =   2630000.    
                            -----------------------------------------------

                              NUMBER OF TIME STEPS =    30

                               MULTIPLIER FOR DELT =     1.000

                            INITIAL TIME STEP SIZE =   87666.66    

 REUSING NON-PARAMETER GHB CELLS FROM LAST STRESS PERIOD

      2 GHB CELLS

 REUSING STREAM SEGMENT DATA FROM LAST STRESS PERIOD



            AREAL INFILTRATION RATE
 READING ON UNIT   19 WITH FORMAT: (FREE)              

            1           2           3           4           5           6           7           8           9          10
 ........................................................................................................................
   1   1.0000E-10  2.0000E-10   0.000       0.000       0.000       0.000       0.000       0.000       0.000       0.000    
   2   2.0000E-10  1.0000E-10  2.0000E-10   0.000       0.000      8.0000E-10  8.0000E-10  5.0000E-10   0.000       0.000    
   3    0.000      5.0000E-10  1.0000E-10  1.0000E-10  8.0000E-10  8.0000E-10  5.0000E-10  5.0000E-10   0.000       0.000    
   4   8.0000E-10  5.0000E-10  1.0000E-10  1.0000E-10  1.0000E-10  1.0000E-10  1.0000E-10  1.0000E-10  2.0000E-10   0.000    
   5   8.0000E-10  5.0000E-10  1.0000E-10  1.0000E-10  1.0000E-10  1.0000E-10  1.0000E-10  1.0000E-10  1.0000E-10  1.0000E-10
   6   8.0000E-10  5.0000E-10  5.0000E-10  2.0000E-10  2.0000E-10  1.0000E-10  1.0000E-10  1.0000E-10  1.0000E-10  5.0000E-10
   7   8.0000E-10  5.0000E-10  5.0000E-10  2.0000E-10  2.0000E-10  1.0000E-10  1.0000E-10  2.0000E-10  2.0000E-10   0.000    
   8    0.000      5.0000E-10  5.0000E-10  2.0000E-10  2.0000E-10  1.0000E-10  1.0000E-10  2.0000E-10  5.0000E-10   0.000    
   9    0.000      5.0000E-10  5.0000E-10  2.0000E-10  2.0000E-10  1.0000E-10  1.0000E-10  2.0000E-10  5.0000E-10   0.000    
  10    0.000      5.0000E-10  5.0000E-10  2.0000E-10  2.0000E-10  1.0000E-10  1.0000E-10  2.0000E-10  5.0000E-10  8.0000E-10
  11    0.000      1.0000E-10  1.0000E-10  1.0000E-10  1.0000E-10  1.0000E-10  1.0000E-10  2.0000E-10  5.0000E-10   0.000    
  12   1.0000E-10  1.0000E-10  1.0000E-10  1.0000E-10  1.0000E-10  1.0000E-10  1.0000E-10  1.0000E-10  2.0000E-10   0.000    
  13   1.0000E-10  1.0000E-10  2.0000E-10  2.0000E-10  2.0000E-10  2.0000E-10  2.0000E-10  1.0000E-10  1.0000E-10   0.000    
  14    0.000      2.0000E-10  5.0000E-10  5.0000E-10  5.0000E-10  5.0000E-10  5.0000E-10  2.0000E-10  1.0000E-10   0.000    
  15    0.000       0.000      8.0000E-10  8.0000E-10  8.0000E-10  8.0000E-10   0.000       0.000       0.000       0.000    

                  ET RATE =  2.500000E-08

 USING ET EXTINCTION DEPTH FROM PREVIOUS STRESS PERIOD. CURRENT PERIOD IS:       5

 USING EXTINCTION WATER CONTENT FROM PREVIOUS STRESS PERIOD. CURRENT PERIOD IS:       5

 USING AIR ENTRY PRESSURE FROM PREVIOUS STRESS PERIOD. CURRENT PERIOD IS:       5

 USING ROOT PRESSURE HEAD FROM PREVIOUS STRESS PERIOD. CURRENT PERIOD IS:       5

 USING ROOT ACTIVITY FROM PREVIOUS STRESS PERIOD. CURRENT PERIOD IS:       5

 PROCESSING AG STRESS PERIOD DATA

 READING AG STRESS PERIOD DATA

 READING IRRIGATION SEGMENT

 READING IRRIGATION WELL

 READING SUPPLEMENTAL WELL

 NO IRRPOND OR REUSING IRRPOND DATA FROM LAST STRESS PERIOD

 END PROCESSING AG STRESS PERIOD DATA OPTIONS
 
 SOLVING FOR HEAD 
                                                   Max.-Head-Change                         Max.-Flux-Residual
  Residual-Control   Outer-Iter.   Inner-Iter.     Column Row Layer    Maximum-Head-Change  Column Row Layer    Maximum-Flux-Residual          L2-NORM 
          0                 1           2             4   13     1      -0.7750541857E-02       4   13    1        -0.4441166749E+00      0.7888330163E+00
          0                 2           2             4    7     1      -0.1159012252E-01       5    6    1        -0.6253668522E+00      0.1529289624E+01
          0                 3           2             4    7     1       0.9380805214E-02       5    6    1         0.5180915518E+00      0.1268746335E+01
          0                 4           2             4    7     1      -0.3732750847E-03       5    6    1        -0.2119014802E-01      0.5189213425E-01
          0                 5           1             4    7     1       0.4602641438E-05       5    6    1         0.2685444670E-03      0.6577138436E-03

    ------------------------------------------------
       NWT REQUIRED            5 OUTER ITERATIONS 
       AND A TOTAL OF          9 INNER ITERATIONS.
    ------------------------------------------------

 NO OUTPUT CONTROL FOR STRESS PERIOD    5   TIME STEP    1
 
 SOLVING FOR HEAD 
                                                   Max.-Head-Change                         Max.-Flux-Residual
  Residual-Control   Outer-Iter.   Inner-Iter.     Column Row Layer    Maximum-Head-Change  Column Row Layer    Maximum-Flux-Residual          L2-NORM 
          0                 1           2             4   13     1      -0.5476522153E-02       4   13    1        -0.3139496256E+00      0.5966932637E+00
          0                 2           2             4   13     1       0.5279899326E-03       4   13    1         0.3112072862E-01      0.5841065614E-01
          0                 3           1             4   13     1      -0.3550117205E-04       4   13    1        -0.2151427807E-02      0.3970048127E-02

    ------------------------------------------------
       NWT REQUIRED            3 OUTER ITERATIONS 
       AND A TOTAL OF          5 INNER ITERATIONS.
    ------------------------------------------------

 OUTPUT CONTROL FOR STRESS PERIOD    5   TIME STEP    2
    PRINT BUDGET
    SAVE BUDGET
 UBDSV1 SAVING "         STORAGE" ON UNIT 102 AT TIME STEP 2, STRESS PERIOD 5
 UBDSV2 SAVING "   CONSTANT HEAD" ON UNIT 102 AT TIME STEP 2, STRESS PERIOD 5
 UBDSV1 SAVING "FLOW RIGHT FACE " ON UNIT 102 AT TIME STEP 2, STRESS PERIOD 5
 UBDSV1 SAVING "FLOW FRONT FACE " ON UNIT 102 AT TIME STEP 2, STRESS PERIOD 5

  HEAD DEP BOUNDS   PERIOD    5   STEP     2
 BOUNDARY      1   LAYER   1   ROW    13   COL     1   RATE   -0.289920    
 BOUNDARY      2   LAYER   1   ROW    14   COL     9   RATE    0.287882    



 STREAM LISTING     PERIOD      5   STEP        2

 LAYER ROW COL. STREAM  RCH.  FLOW INTO     FLOW TO   FLOW OUT OF   OVRLND.     DIRECT     STREAM       STREAM     STREAM     STREAM   STREAMBED  STREAMBED
                SEG.NO.  NO.  STRM. RCH.    AQUIFER    STRM. RCH.    RUNOFF     PRECIP       ET          HEAD       DEPTH      WIDTH   CONDCTNC.   GRADIENT

   1    1    1     1     1    1.0500E+01  1.5271E-01   1.0347E+01  0.000E+00  0.000E+00  0.000E+00  1.09396E+03  9.109E-01  8.677E+00  3.905E-02  1.304E+00
   1    2    2     1     2    1.0347E+01  2.3504E-01   1.0112E+01  0.000E+00  0.000E+00  0.000E+00  1.08896E+03  9.059E-01  8.597E+00  6.018E-02  1.302E+00
   1    3    3     1     3    1.0112E+01  1.9904E-01   9.9132E+00  0.000E+00  0.000E+00  0.000E+00  1.08332E+03  9.003E-01  8.505E+00  5.103E-02  1.300E+00
   1    3    4     1     4    9.9132E+00  1.8195E-01   9.7312E+00  0.000E+00  0.000E+00  0.000E+00  1.07830E+03  8.947E-01  8.417E+00  4.672E-02  1.298E+00
   1    4    5     2     1    7.7312E+00  2.8007E-01   7.4512E+00  0.000E+00  0.000E+00  0.000E+00  1.07252E+03  5.907E-01  1.200E+01  7.800E-02  1.197E+00
   1    5    6     2     2    7.4512E+00  2.1474E-01   7.2364E+00  0.000E+00  0.000E+00  0.000E+00  1.06709E+03  5.790E-01  1.200E+01  6.000E-02  1.193E+00
   1    6    6     2     3    7.2364E+00  2.1413E-01   7.0223E+00  0.000E+00  0.000E+00  0.000E+00  1.06236E+03  5.688E-01  1.200E+01  6.000E-02  1.190E+00
   1    7    6     2     4    7.0223E+00  2.1351E-01   6.8088E+00  0.000E+00  0.000E+00  0.000E+00  1.05763E+03  5.585E-01  1.200E+01  6.000E-02  1.186E+00
   1    8    6     2     5    6.8088E+00  2.1289E-01   6.5959E+00  0.000E+00  0.000E+00  0.000E+00  1.05291E+03  5.481E-01  1.200E+01  6.000E-02  1.183E+00
   1    3    5     3     1    2.0000E+00  2.8252E-01   1.7175E+00  0.000E+00  0.000E+00  0.000E+00  1.07555E+03  1.909E+00  9.636E+00  7.227E-02  1.955E+00
   1    3    6     3     2    1.7175E+00  2.4905E-01   1.4684E+00  0.000E+00  0.000E+00  0.000E+00  1.07264E+03  1.727E+00  8.909E+00  6.682E-02  1.864E+00
   1    3    7     3     3    1.4684E+00  1.9718E-01   1.2712E+00  0.000E+00  0.000E+00  0.000E+00  1.06987E+03  1.555E+00  8.218E+00  5.547E-02  1.777E+00
   1    4    8     3     4    1.2712E+00  2.2567E-01   1.0456E+00  0.000E+00  0.000E+00  0.000E+00  1.06682E+03  1.364E+00  7.455E+00  6.709E-02  1.682E+00
   1    5    8     3     5    1.0456E+00  1.5790E-01   8.8768E-01  0.000E+00  0.000E+00  0.000E+00  1.06362E+03  1.164E+00  6.655E+00  4.991E-02  1.582E+00
   1    6    8     3     6    8.8768E-01  5.5980E-02   8.3170E-01  0.000E+00  0.000E+00  0.000E+00  1.06158E+03  1.036E+00  6.145E+00  1.844E-02  1.518E+00
   1    5   10     4     1    1.0000E+01  9.0919E-02   9.9091E+00  0.000E+00  0.000E+00  0.000E+00  1.07836E+03  6.368E-01  1.000E+01  2.500E-02  1.212E+00
   1    5    9     4     2    9.9091E+00  1.8158E-01   9.7275E+00  0.000E+00  0.000E+00  0.000E+00  1.07154E+03  6.315E-01  1.000E+01  5.000E-02  1.211E+00
   1    6    8     4     3    9.7275E+00  1.2689E-01   9.6006E+00  0.000E+00  0.000E+00  0.000E+00  1.06381E+03  6.256E-01  1.000E+01  3.500E-02  1.209E+00
   1    6    8     5     1    1.0432E+01  2.2686E-01   1.0205E+01  0.000E+00  0.000E+00  0.000E+00  1.05868E+03  6.790E-01  1.542E+01  6.166E-02  1.226E+00
   1    7    7     5     2    1.0205E+01  2.7894E-01   9.9265E+00  0.000E+00  0.000E+00  0.000E+00  1.05417E+03  6.732E-01  1.519E+01  7.594E-02  1.224E+00
   1    8    7     5     3    9.9265E+00  1.9221E-01   9.7343E+00  0.000E+00  0.000E+00  0.000E+00  1.04992E+03  6.676E-01  1.497E+01  5.241E-02  1.223E+00
   1    8    6     5     4    9.7343E+00  1.3577E-01   9.5985E+00  0.000E+00  0.000E+00  0.000E+00  1.04691E+03  6.637E-01  1.482E+01  3.706E-02  1.221E+00
   1    9    6     6     1    1.6194E+01  2.3621E-01   1.5958E+01  0.000E+00  0.000E+00  0.000E+00  1.04366E+03  9.369E-01  1.200E+01  6.000E-02  1.312E+00
   1   10    7     6     2    1.5958E+01  2.3572E-01   1.5723E+01  0.000E+00  0.000E+00  0.000E+00  1.03911E+03  9.286E-01  1.200E+01  6.000E-02  1.310E+00
   1   11    7     6     3    1.5723E+01  2.3522E-01   1.5487E+01  0.000E+00  0.000E+00  0.000E+00  1.03456E+03  9.203E-01  1.200E+01  6.000E-02  1.307E+00
   1   12    7     6     4    1.5487E+01  2.3472E-01   1.5253E+01  0.000E+00  0.000E+00  0.000E+00  1.03000E+03  9.120E-01  1.200E+01  6.000E-02  1.304E+00
   1   13    7     6     5    1.5253E+01 -9.5692E-03   1.5262E+01  0.000E+00  0.000E+00  0.000E+00  1.02682E+03  9.079E-01  1.200E+01  2.400E-01 -1.329E-02
   1   14    9     7     1    1.5000E+02  1.3670E+00   1.4863E+02  0.000E+00  0.000E+00  0.000E+00  1.03987E+03  2.288E+00  5.529E+01  5.593E-01  8.147E-01
   1   13    8     7     2    1.4863E+02  1.9171E+00   1.4672E+02  0.000E+00  0.000E+00  0.000E+00  1.03478E+03  2.279E+00  5.526E+01  6.148E-01  1.039E+00
   1   13    7     7     3    1.4672E+02  1.5814E+00   1.4513E+02  0.000E+00  0.000E+00  0.000E+00  1.02969E+03  2.270E+00  5.521E+01  5.584E-01  9.440E-01
   1   13    6     8     1    1.6040E+02  9.6279E-01   1.5943E+02  0.000E+00  0.000E+00  0.000E+00  1.02476E+03  2.885E+00  4.184E+01  4.263E-01  7.528E-01
   1   13    5     8     2    1.5943E+02  2.1203E-01   1.5922E+02  0.000E+00  0.000E+00  0.000E+00  1.01851E+03  2.881E+00  4.178E+01  4.257E-01  1.660E-01
   1   13    4     8     3    1.5922E+02 -2.5063E+00   1.6173E+02  0.000E+00  0.000E+00  0.000E+00  1.01226E+03  2.889E+00  4.189E+01  4.269E+00 -1.957E-01
   1   13    3     8     4    1.6173E+02 -3.7856E+00   1.6551E+02  0.000E+00  0.000E+00  0.000E+00  1.00604E+03  2.910E+00  4.220E+01  4.300E+00 -2.935E-01
   1   13    2     8     5    1.6551E+02 -2.8086E+00   1.6832E+02  0.000E+00  0.000E+00  0.000E+00  9.99807E+02  2.932E+00  4.251E+01  4.332E+00 -2.161E-01
   1   13    1     8     6    1.6832E+02 -2.1075E+00   1.7043E+02  0.000E+00  0.000E+00  0.000E+00  9.94823E+02  2.948E+00  4.275E+01  2.614E+00 -2.688E-01
   1    8    6     9     1    2.2132E-07  0.0000E+00   2.2132E-07  0.000E+00  0.000E+00  0.000E+00  1.07875E+03  5.785E-05  4.000E+00  0.000E+00  1.000E+00
   1    8    5     9     2    2.2132E-07  0.0000E+00   2.2132E-07  0.000E+00  0.000E+00  0.000E+00  1.07825E+03  5.785E-05  4.000E+00  0.000E+00  1.000E+00



 UBDSV3 SAVING "           GW ET" ON UNIT  61 AT TIME STEP 2, STRESS PERIOD 5
 UBDSV3 SAVING "    UZF RECHARGE" ON UNIT  61 AT TIME STEP 2, STRESS PERIOD 5
 UBDSV3 SAVING " SURFACE LEAKAGE" ON UNIT  61 AT TIME STEP 2, STRESS PERIOD 5
 UBDSV3 SAVING "       HORT+DUNN" ON UNIT  61 AT TIME STEP 2, STRESS PERIOD 5
 UBDSV3 SAVING "  STORAGE CHANGE" ON UNIT  61 AT TIME STEP 2, STRESS PERIOD 5


UNSATURATED ZONE PACKAGE VOLUMETRIC BUDGET FOR  TIME STEP     2 STRESS PERIOD    5
  ------------------------------------------------------------------------------



     CUMULATIVE VOLUMES      L**3       RATES FOR THIS TIME STEP      L**3/T
     ------------------                 ------------------------

           IN:                                      IN:
           ---                                      ---
        INFILTRATION =     7563475.2699          INFILTRATION =           0.8475

          OUT:                                     OUT:
          ----                                     ----
              UZF ET =     7406350.0118                UZF ET =           4.5966
        UZF RECHARGE =       73224.0000          UZF RECHARGE =       0.0000E+00

            IN - OUT =       83901.2581              IN - OUT =          -3.7491

          STORAGE:                                 STORAGE:
          --------                                 --------
      STORAGE CHANGE =       83900.6170        STORAGE CHANGE =          -3.7491

 PERCENT DISCREPANCY IS DIFFERENCE BETWEEN IN-OUT MINUS CHANGE IN STORAGE
 DIVIDED BY THE AVERAGE OF IN AND OUT TIMES 100

 PERCENT DISCREPANCY =           0.00     PERCENT DISCREPANCY =           0.00






 

            AG WELLS      PERIOD    5   STEP   2
 AG WELL      1   LAYER   1   ROW     6   COL     4   RATE     0.00000    
 AG WELL      2   LAYER   1   ROW     6   COL     5   RATE     0.00000    
 AG WELL      3   LAYER   1   ROW     7   COL     4   RATE     0.00000    
 AG WELL      4   LAYER   1   ROW     7   COL     5   RATE     0.00000    
 AG WELL      5   LAYER   1   ROW     8   COL     4   RATE     0.00000    
 AG WELL      6   LAYER   1   ROW     8   COL     5   RATE     0.00000    
 
 

   DIVERSION SEGMENTS     PERIOD    5   STEP   2
 SEGMENT      9   RATE    2.213197E-07
 
 

        SW IRRIGATION     PERIOD    5   STEP   2
 SEGMENT      9   ROW     6   COL     4   RATE    3.688735E-08
 SEGMENT      9   ROW     6   COL     5   RATE    3.688735E-08
 SEGMENT      9   ROW     7   COL     4   RATE    3.688735E-08
 SEGMENT      9   ROW     7   COL     5   RATE    3.688735E-08
 SEGMENT      9   ROW     8   COL     4   RATE    3.688735E-08
 SEGMENT      9   ROW     8   COL     5   RATE    3.688735E-08
 
 

        GW IRRIGATION     PERIOD    5   STEP   2
 AG WELL      1   ROW     6   COL     4   RATE     0.00000    
 AG WELL      2   ROW     6   COL     5   RATE     0.00000    
 AG WELL      3   ROW     7   COL     4   RATE     0.00000    
 AG WELL      4   ROW     7   COL     5   RATE     0.00000    
 AG WELL      5   ROW     8   COL     4   RATE     0.00000    
 AG WELL      6   ROW     8   COL     5   RATE     0.00000    
 
1
  VOLUMETRIC BUDGET FOR AGRICULTURAL FIELDS AT  END OF TIME STEP    2, STRESS PERIOD   5
  ------------------------------------------------------------------------------

     CUMULATIVE VOLUMES      L**3       RATES FOR THIS TIME STEP      L**3/T
     ------------------                 ------------------------

           IN:                                      IN:
           ---                                      ---
               AG WELLS  =       76629.9531                 AG WELLS  =           0.0000
      DIVERSION SEGMENTS =      578240.1250        DIVERSION SEGMENTS =       2.2132E-07
       IRRIGATION PONDS  =           0.0000         IRRIGATION PONDS  =           0.0000
           GW IRRIGATION =           0.0000             GW IRRIGATION =           0.0000
           SW IRRIGATION =           0.0000             SW IRRIGATION =           0.0000
        SYSTEM LOSSES GW =           0.0000          SYSTEM LOSSES GW =           0.0000
        SYSTEM LOSSES SW =           0.0000          SYSTEM LOSSES SW =           0.0000

                TOTAL IN =      654870.0625                  TOTAL IN =       2.2132E-07

          OUT:                                     OUT:
          ----                                     ----
               AG WELLS  =           0.0000                 AG WELLS  =           0.0000
      DIVERSION SEGMENTS =           0.0000        DIVERSION SEGMENTS =           0.0000
       IRRIGATION PONDS  =           0.0000         IRRIGATION PONDS  =           0.0000
           GW IRRIGATION =       76629.9531             GW IRRIGATION =           0.0000
           SW IRRIGATION =      578251.6875             SW IRRIGATION =       2.2132E-07
        SYSTEM LOSSES GW =           0.0000          SYSTEM LOSSES GW =           0.0000
        SYSTEM LOSSES SW =           0.0000          SYSTEM LOSSES SW =           0.0000

               TOTAL OUT =      654881.6250                 TOTAL OUT =       2.2132E-07

                IN - OUT =         -11.5625                  IN - OUT =      -4.4196E-12

     PERCENT DISCREPANCY =          -0.00         PERCENT DISCREPANCY =          -0.00



1
  VOLUMETRIC BUDGET FOR ENTIRE MODEL AT END OF TIME STEP    2, STRESS PERIOD   5
  ------------------------------------------------------------------------------

     CUMULATIVE VOLUMES      L**3       RATES FOR THIS TIME STEP      L**3/T
     ------------------                 ------------------------

           IN:                                      IN:
           ---                                      ---
             STORAGE     =     4675083.5000               STORAGE     =           1.4389
       CONSTANT HEAD     =           0.0000         CONSTANT HEAD     =           0.0000
     HEAD DEP BOUNDS     =     2346258.2500       HEAD DEP BOUNDS     =           0.2879
      STREAM LEAKAGE     =    95426240.0000        STREAM LEAKAGE     =          11.2877
        UZF RECHARGE     =       73223.9531          UZF RECHARGE     =           0.0000
               GW ET     =           0.0000                 GW ET     =           0.0000
     SURFACE LEAKAGE     =           0.0000       SURFACE LEAKAGE     =           0.0000
           AG WELLS      =           0.0000             AG WELLS      =           0.0000

                TOTAL IN =   102520808.0000                  TOTAL IN =          13.0145

          OUT:                                     OUT:
          ----                                     ----
             STORAGE     =    17798612.0000               STORAGE     =           1.5070
       CONSTANT HEAD     =           0.0000         CONSTANT HEAD     =           0.0000
     HEAD DEP BOUNDS     =     2348540.7500       HEAD DEP BOUNDS     =           0.2899
      STREAM LEAKAGE     =    82300776.0000        STREAM LEAKAGE     =          11.2176
        UZF RECHARGE     =           0.0000          UZF RECHARGE     =           0.0000
               GW ET     =           0.0000                 GW ET     =           0.0000
     SURFACE LEAKAGE     =           0.0000       SURFACE LEAKAGE     =           0.0000
           AG WELLS      =       76629.9531             AG WELLS      =           0.0000

               TOTAL OUT =   102524560.0000                 TOTAL OUT =          13.0145

                IN - OUT =       -3752.0000                  IN - OUT =      -1.7166E-05

     PERCENT DISCREPANCY =          -0.00         PERCENT DISCREPANCY =          -0.00






         TIME SUMMARY AT END OF TIME STEP    2 IN STRESS PERIOD    5
                    SECONDS     MINUTES      HOURS       DAYS        YEARS
                    -----------------------------------------------------------
   TIME STEP LENGTH  87667.      1461.1      24.352      1.0147     2.77799E-03
 STRESS PERIOD TIME 1.75333E+05  2922.2      48.704      2.0293     5.55598E-03
         TOTAL TIME 8.15173E+06 1.35862E+05  2264.4      94.349     0.25831    
1
 
 SOLVING FOR HEAD 
                                                   Max.-Head-Change                         Max.-Flux-Residual
  Residual-Control   Outer-Iter.   Inner-Iter.     Column Row Layer    Maximum-Head-Change  Column Row Layer    Maximum-Flux-Residual          L2-NORM 
          0                 1           2             4   13     1      -0.4967095470E-02       4   13    1        -0.2846207627E+00      0.5587026513E+00
          0                 2           2             4    7     1      -0.1159254343E-01       5    6    1        -0.6256420417E+00      0.1531170245E+01
          0                 3           2             4    7     1       0.1201982967E-01       5    6    1         0.6637947446E+00      0.1625650281E+01
          0                 4           2             4    7     1      -0.4782805368E-03       5    6    1        -0.2714916457E-01      0.6649029175E-01
          0                 5           1             4    7     1       0.5897402779E-05       5    6    1         0.3440635287E-03      0.8429958474E-03

    ------------------------------------------------
       NWT REQUIRED            5 OUTER ITERATIONS 
       AND A TOTAL OF          9 INNER ITERATIONS.
    ------------------------------------------------

 OUTPUT CONTROL FOR STRESS PERIOD    5   TIME STEP    3
    PRINT BUDGET
    SAVE BUDGET
 UBDSV1 SAVING "         STORAGE" ON UNIT 102 AT TIME STEP 3, STRESS PERIOD 5
 UBDSV2 SAVING "   CONSTANT HEAD" ON UNIT 102 AT TIME STEP 3, STRESS PERIOD 5
 UBDSV1 SAVING "FLOW RIGHT FACE " ON UNIT 102 AT TIME STEP 3, STRESS PERIOD 5
 UBDSV1 SAVING "FLOW FRONT FACE " ON UNIT 102 AT TIME STEP 3, STRESS PERIOD 5

  HEAD DEP BOUNDS   PERIOD    5   STEP     3
 BOUNDARY      1   LAYER   1   ROW    13   COL     1   RATE   -0.289802    
 BOUNDARY      2   LAYER   1   ROW    14   COL     9   RATE    0.287883    



 STREAM LISTING     PERIOD      5   STEP        3

 LAYER ROW COL. STREAM  RCH.  FLOW INTO     FLOW TO   FLOW OUT OF   OVRLND.     DIRECT     STREAM       STREAM     STREAM     STREAM   STREAMBED  STREAMBED
                SEG.NO.  NO.  STRM. RCH.    AQUIFER    STRM. RCH.    RUNOFF     PRECIP       ET          HEAD       DEPTH      WIDTH   CONDCTNC.   GRADIENT

   1    1    1     1     1    1.0500E+01  1.5271E-01   1.0347E+01  0.000E+00  0.000E+00  0.000E+00  1.09396E+03  9.109E-01  8.677E+00  3.905E-02  1.304E+00
   1    2    2     1     2    1.0347E+01  2.3504E-01   1.0112E+01  0.000E+00  0.000E+00  0.000E+00  1.08896E+03  9.059E-01  8.597E+00  6.018E-02  1.302E+00
   1    3    3     1     3    1.0112E+01  1.9904E-01   9.9132E+00  0.000E+00  0.000E+00  0.000E+00  1.08332E+03  9.003E-01  8.505E+00  5.103E-02  1.300E+00
   1    3    4     1     4    9.9132E+00  1.8195E-01   9.7312E+00  0.000E+00  0.000E+00  0.000E+00  1.07830E+03  8.947E-01  8.417E+00  4.672E-02  1.298E+00
   1    4    5     2     1    7.7312E+00  2.8007E-01   7.4512E+00  0.000E+00  0.000E+00  0.000E+00  1.07252E+03  5.907E-01  1.200E+01  7.800E-02  1.197E+00
   1    5    6     2     2    7.4512E+00  2.1474E-01   7.2364E+00  0.000E+00  0.000E+00  0.000E+00  1.06709E+03  5.790E-01  1.200E+01  6.000E-02  1.193E+00
   1    6    6     2     3    7.2364E+00  2.1413E-01   7.0223E+00  0.000E+00  0.000E+00  0.000E+00  1.06236E+03  5.688E-01  1.200E+01  6.000E-02  1.190E+00
   1    7    6     2     4    7.0223E+00  2.1351E-01   6.8088E+00  0.000E+00  0.000E+00  0.000E+00  1.05763E+03  5.585E-01  1.200E+01  6.000E-02  1.186E+00
   1    8    6     2     5    6.8088E+00  2.1289E-01   6.5959E+00  0.000E+00  0.000E+00  0.000E+00  1.05291E+03  5.481E-01  1.200E+01  6.000E-02  1.183E+00
   1    3    5     3     1    2.0000E+00  2.8252E-01   1.7175E+00  0.000E+00  0.000E+00  0.000E+00  1.07555E+03  1.909E+00  9.636E+00  7.227E-02  1.955E+00
   1    3    6     3     2    1.7175E+00  2.4905E-01   1.4684E+00  0.000E+00  0.000E+00  0.000E+00  1.07264E+03  1.727E+00  8.909E+00  6.682E-02  1.864E+00
   1    3    7     3     3    1.4684E+00  1.9718E-01   1.2712E+00  0.000E+00  0.000E+00  0.000E+00  1.06987E+03  1.555E+00  8.218E+00  5.547E-02  1.777E+00
   1    4    8     3     4    1.2712E+00  2.2567E-01   1.0456E+00  0.000E+00  0.000E+00  0.000E+00  1.06682E+03  1.364E+00  7.455E+00  6.709E-02  1.682E+00
   1    5    8     3     5    1.0456E+00  1.5790E-01   8.8768E-01  0.000E+00  0.000E+00  0.000E+00  1.06362E+03  1.164E+00  6.655E+00  4.991E-02  1.582E+00
   1    6    8     3     6    8.8768E-01  5.5980E-02   8.3170E-01  0.000E+00  0.000E+00  0.000E+00  1.06158E+03  1.036E+00  6.145E+00  1.844E-02  1.518E+00
   1    5   10     4     1    1.0000E+01  9.0919E-02   9.9091E+00  0.000E+00  0.000E+00  0.000E+00  1.07836E+03  6.368E-01  1.000E+01  2.500E-02  1.212E+00
   1    5    9     4     2    9.9091E+00  1.8158E-01   9.7275E+00  0.000E+00  0.000E+00  0.000E+00  1.07154E+03  6.315E-01  1.000E+01  5.000E-02  1.211E+00
   1    6    8     4     3    9.7275E+00  1.2689E-01   9.6006E+00  0.000E+00  0.000E+00  0.000E+00  1.06381E+03  6.256E-01  1.000E+01  3.500E-02  1.209E+00
   1    6    8     5     1    1.0432E+01  2.2686E-01   1.0205E+01  0.000E+00  0.000E+00  0.000E+00  1.05868E+03  6.790E-01  1.542E+01  6.166E-02  1.226E+00
   1    7    7     5     2    1.0205E+01  2.7894E-01   9.9265E+00  0.000E+00  0.000E+00  0.000E+00  1.05417E+03  6.732E-01  1.519E+01  7.594E-02  1.224E+00
   1    8    7     5     3    9.9265E+00  1.9221E-01   9.7343E+00  0.000E+00  0.000E+00  0.000E+00  1.04992E+03  6.676E-01  1.497E+01  5.241E-02  1.223E+00
   1    8    6     5     4    9.7343E+00  1.3577E-01   9.5985E+00  0.000E+00  0.000E+00  0.000E+00  1.04691E+03  6.637E-01  1.482E+01  3.706E-02  1.221E+00
   1    9    6     6     1    1.2474E+01  2.2801E-01   1.2246E+01  0.000E+00  0.000E+00  0.000E+00  1.04353E+03  8.002E-01  1.200E+01  6.000E-02  1.267E+00
   1   10    7     6     2    1.2246E+01  2.2748E-01   1.2019E+01  0.000E+00  0.000E+00  0.000E+00  1.03897E+03  7.913E-01  1.200E+01  6.000E-02  1.264E+00
   1   11    7     6     3    1.2019E+01  2.2694E-01   1.1792E+01  0.000E+00  0.000E+00  0.000E+00  1.03442E+03  7.824E-01  1.200E+01  6.000E-02  1.261E+00
   1   12    7     6     4    1.1792E+01  2.2640E-01   1.1566E+01  0.000E+00  0.000E+00  0.000E+00  1.02986E+03  7.734E-01  1.200E+01  6.000E-02  1.258E+00
   1   13    7     6     5    1.1566E+01 -4.2617E-02   1.1608E+01  0.000E+00  0.000E+00  0.000E+00  1.02668E+03  7.698E-01  1.200E+01  2.400E-01 -5.919E-02
   1   14    9     7     1    1.5000E+02  1.3670E+00   1.4863E+02  0.000E+00  0.000E+00  0.000E+00  1.03987E+03  2.288E+00  5.529E+01  5.593E-01  8.147E-01
   1   13    8     7     2    1.4863E+02  1.9170E+00   1.4672E+02  0.000E+00  0.000E+00  0.000E+00  1.03478E+03  2.279E+00  5.526E+01  6.148E-01  1.039E+00
   1   13    7     7     3    1.4672E+02  1.5817E+00   1.4513E+02  0.000E+00  0.000E+00  0.000E+00  1.02969E+03  2.270E+00  5.521E+01  5.584E-01  9.442E-01
   1   13    6     8     1    1.5674E+02  9.4443E-01   1.5580E+02  0.000E+00  0.000E+00  0.000E+00  1.02474E+03  2.860E+00  4.148E+01  4.227E-01  7.448E-01
   1   13    5     8     2    1.5580E+02  2.0001E-01   1.5560E+02  0.000E+00  0.000E+00  0.000E+00  1.01848E+03  2.856E+00  4.142E+01  4.221E-01  1.580E-01
   1   13    4     8     3    1.5560E+02 -2.5639E+00   1.5816E+02  0.000E+00  0.000E+00  0.000E+00  1.01224E+03  2.865E+00  4.154E+01  4.233E+00 -2.019E-01
   1   13    3     8     4    1.5816E+02 -3.8339E+00   1.6200E+02  0.000E+00  0.000E+00  0.000E+00  1.00601E+03  2.886E+00  4.185E+01  4.265E+00 -2.996E-01
   1   13    2     8     5    1.6200E+02 -2.8614E+00   1.6486E+02  0.000E+00  0.000E+00  0.000E+00  9.99784E+02  2.909E+00  4.218E+01  4.298E+00 -2.219E-01
   1   13    1     8     6    1.6486E+02 -2.1420E+00   1.6700E+02  0.000E+00  0.000E+00  0.000E+00  9.94800E+02  2.925E+00  4.242E+01  2.594E+00 -2.753E-01
   1    8    6     9     1    3.7200E+00  0.0000E+00   3.7200E+00  0.000E+00  0.000E+00  0.000E+00  1.08000E+03  1.252E+00  4.000E+00  0.000E+00  1.417E+00
   1    8    5     9     2    3.7200E+00  0.0000E+00   3.7200E+00  0.000E+00  0.000E+00  0.000E+00  1.07950E+03  1.252E+00  4.000E+00  0.000E+00  1.417E+00



 UBDSV3 SAVING "           GW ET" ON UNIT  61 AT TIME STEP 3, STRESS PERIOD 5
 UBDSV3 SAVING "    UZF RECHARGE" ON UNIT  61 AT TIME STEP 3, STRESS PERIOD 5
 UBDSV3 SAVING " SURFACE LEAKAGE" ON UNIT  61 AT TIME STEP 3, STRESS PERIOD 5
 UBDSV3 SAVING "       HORT+DUNN" ON UNIT  61 AT TIME STEP 3, STRESS PERIOD 5
 UBDSV3 SAVING "  STORAGE CHANGE" ON UNIT  61 AT TIME STEP 3, STRESS PERIOD 5


UNSATURATED ZONE PACKAGE VOLUMETRIC BUDGET FOR  TIME STEP     3 STRESS PERIOD    5
  ------------------------------------------------------------------------------



     CUMULATIVE VOLUMES      L**3       RATES FOR THIS TIME STEP      L**3/T
     ------------------                 ------------------------

           IN:                                      IN:
           ---                                      ---
        INFILTRATION =     7963899.2892          INFILTRATION =           4.5676

          OUT:                                     OUT:
          ----                                     ----
              UZF ET =     7806767.5116                UZF ET =           4.5675
        UZF RECHARGE =       73224.0000          UZF RECHARGE =       0.0000E+00

            IN - OUT =       83907.7776              IN - OUT =       7.4089E-05

          STORAGE:                                 STORAGE:
          --------                                 --------
      STORAGE CHANGE =       83907.1554        STORAGE CHANGE =       7.4582E-05

 PERCENT DISCREPANCY IS DIFFERENCE BETWEEN IN-OUT MINUS CHANGE IN STORAGE
 DIVIDED BY THE AVERAGE OF IN AND OUT TIMES 100

 PERCENT DISCREPANCY =           0.00     PERCENT DISCREPANCY =          -0.00






 

            AG WELLS      PERIOD    5   STEP   3
 AG WELL      1   LAYER   1   ROW     6   COL     4   RATE     0.00000    
 AG WELL      2   LAYER   1   ROW     6   COL     5   RATE     0.00000    
 AG WELL      3   LAYER   1   ROW     7   COL     4   RATE     0.00000    
 AG WELL      4   LAYER   1   ROW     7   COL     5   RATE     0.00000    
 AG WELL      5   LAYER   1   ROW     8   COL     4   RATE     0.00000    
 AG WELL      6   LAYER   1   ROW     8   COL     5   RATE     0.00000    
 
 

   DIVERSION SEGMENTS     PERIOD    5   STEP   3
 SEGMENT      9   RATE     3.72000    
 
 

        SW IRRIGATION     PERIOD    5   STEP   3
 SEGMENT      9   ROW     6   COL     4   RATE    0.620012    
 SEGMENT      9   ROW     6   COL     5   RATE    0.620012    
 SEGMENT      9   ROW     7   COL     4   RATE    0.620012    
 SEGMENT      9   ROW     7   COL     5   RATE    0.620012    
 SEGMENT      9   ROW     8   COL     4   RATE    0.620012    
 SEGMENT      9   ROW     8   COL     5   RATE    0.620012    
 
 

        GW IRRIGATION     PERIOD    5   STEP   3
 AG WELL      1   ROW     6   COL     4   RATE     0.00000    
 AG WELL      2   ROW     6   COL     5   RATE     0.00000    
 AG WELL      3   ROW     7   COL     4   RATE     0.00000    
 AG WELL      4   ROW     7   COL     5   RATE     0.00000    
 AG WELL      5   ROW     8   COL     4   RATE     0.00000    
 AG WELL      6   ROW     8   COL     5   RATE     0.00000    
 
1
  VOLUMETRIC BUDGET FOR AGRICULTURAL FIELDS AT  END OF TIME STEP    3, STRESS PERIOD   5
  ------------------------------------------------------------------------------

     CUMULATIVE VOLUMES      L**3       RATES FOR THIS TIME STEP      L**3/T
     ------------------                 ------------------------

           IN:                                      IN:
           ---                                      ---
               AG WELLS  =       76629.9531                 AG WELLS  =           0.0000
      DIVERSION SEGMENTS =      904360.1250        DIVERSION SEGMENTS =           3.7200
       IRRIGATION PONDS  =           0.0000         IRRIGATION PONDS  =           0.0000
           GW IRRIGATION =           0.0000             GW IRRIGATION =           0.0000
           SW IRRIGATION =           0.0000             SW IRRIGATION =           0.0000
        SYSTEM LOSSES GW =           0.0000          SYSTEM LOSSES GW =           0.0000
        SYSTEM LOSSES SW =           0.0000          SYSTEM LOSSES SW =           0.0000

                TOTAL IN =      980990.0625                  TOTAL IN =           3.7200

          OUT:                                     OUT:
          ----                                     ----
               AG WELLS  =           0.0000                 AG WELLS  =           0.0000
      DIVERSION SEGMENTS =           0.0000        DIVERSION SEGMENTS =           0.0000
       IRRIGATION PONDS  =           0.0000         IRRIGATION PONDS  =           0.0000
           GW IRRIGATION =       76629.9531             GW IRRIGATION =           0.0000
           SW IRRIGATION =      904378.2500             SW IRRIGATION =           3.7201
        SYSTEM LOSSES GW =           0.0000          SYSTEM LOSSES GW =           0.0000
        SYSTEM LOSSES SW =           0.0000          SYSTEM LOSSES SW =           0.0000

               TOTAL OUT =      981008.1875                 TOTAL OUT =           3.7201

                IN - OUT =         -18.1250                  IN - OUT =      -7.4148E-05

     PERCENT DISCREPANCY =          -0.00         PERCENT DISCREPANCY =          -0.00



1
  VOLUMETRIC BUDGET FOR ENTIRE MODEL AT END OF TIME STEP    3, STRESS PERIOD   5
  ------------------------------------------------------------------------------

     CUMULATIVE VOLUMES      L**3       RATES FOR THIS TIME STEP      L**3/T
     ------------------                 ------------------------

           IN:                                      IN:
           ---                                      ---
             STORAGE     =     4824220.5000               STORAGE     =           1.7012
       CONSTANT HEAD     =           0.0000         CONSTANT HEAD     =           0.0000
     HEAD DEP BOUNDS     =     2371496.0000       HEAD DEP BOUNDS     =           0.2879
      STREAM LEAKAGE     =    96410256.0000        STREAM LEAKAGE     =          11.2245
        UZF RECHARGE     =       73223.9531          UZF RECHARGE     =           0.0000
               GW ET     =           0.0000                 GW ET     =           0.0000
     SURFACE LEAKAGE     =           0.0000       SURFACE LEAKAGE     =           0.0000
           AG WELLS      =           0.0000             AG WELLS      =           0.0000

                TOTAL IN =   103679200.0000                  TOTAL IN =          13.2136

          OUT:                                     OUT:
          ----                                     ----
             STORAGE     =    17928360.0000               STORAGE     =           1.4800
       CONSTANT HEAD     =           0.0000         CONSTANT HEAD     =           0.0000
     HEAD DEP BOUNDS     =     2373946.7500       HEAD DEP BOUNDS     =           0.2898
      STREAM LEAKAGE     =    83304016.0000        STREAM LEAKAGE     =          11.4438
        UZF RECHARGE     =           0.0000          UZF RECHARGE     =           0.0000
               GW ET     =           0.0000                 GW ET     =           0.0000
     SURFACE LEAKAGE     =           0.0000       SURFACE LEAKAGE     =           0.0000
           AG WELLS      =       76629.9531             AG WELLS      =           0.0000

               TOTAL OUT =   103682952.0000                 TOTAL OUT =          13.2136

                IN - OUT =       -3752.0000                  IN - OUT =       3.3379E-05

     PERCENT DISCREPANCY =          -0.00         PERCENT DISCREPANCY =           0.00






         TIME SUMMARY AT END OF TIME STEP    3 IN STRESS PERIOD    5
                    SECONDS     MINUTES      HOURS       DAYS        YEARS
                    -----------------------------------------------------------
   TIME STEP LENGTH  87667.      1461.1      24.352      1.0147     2.77799E-03
 STRESS PERIOD TIME 2.63000E+05  4383.3      73.056      3.0440     8.33397E-03
         TOTAL TIME 8.23939E+06 1.37323E+05  2288.7      95.363     0.26109    
1
 
 SOLVING FOR HEAD 
                                                   Max.-Head-Change                         Max.-Flux-Residual
  Residual-Control   Outer-Iter.   Inner-Iter.     Column Row Layer    Maximum-Head-Change  Column Row Layer    Maximum-Flux-Residual          L2-NORM 
          0                 1           2             2   13     1      -0.4443708976E-02       4   13    1        -0.2506231121E+00      0.5152822087E+00
          0                 2           2             4   13     1       0.4218905143E-03       4   13    1         0.2484095273E-01      0.5051722013E-01
          0                 3           2             4    7     1      -0.1154108887E-01       4    8    1        -0.6198643022E+00      0.1525269959E+01
          0                 4           2             4    7     1       0.1201654089E-01       4    8    1         0.6633967341E+00      0.1624973876E+01
          0                 5           2             4    7     1      -0.4782644608E-03       4    8    1        -0.2714043963E-01      0.6647828544E-01
          0                 6           1             4    7     1       0.5901582503E-05       4    7    1         0.3442167053E-03      0.8431296451E-03

    ------------------------------------------------
       NWT REQUIRED            6 OUTER ITERATIONS 
       AND A TOTAL OF         11 INNER ITERATIONS.
    ------------------------------------------------

 OUTPUT CONTROL FOR STRESS PERIOD    5   TIME STEP    4
    PRINT BUDGET
    SAVE BUDGET
 UBDSV1 SAVING "         STORAGE" ON UNIT 102 AT TIME STEP 4, STRESS PERIOD 5
 UBDSV2 SAVING "   CONSTANT HEAD" ON UNIT 102 AT TIME STEP 4, STRESS PERIOD 5
 UBDSV1 SAVING "FLOW RIGHT FACE " ON UNIT 102 AT TIME STEP 4, STRESS PERIOD 5
 UBDSV1 SAVING "FLOW FRONT FACE " ON UNIT 102 AT TIME STEP 4, STRESS PERIOD 5

  HEAD DEP BOUNDS   PERIOD    5   STEP     4
 BOUNDARY      1   LAYER   1   ROW    13   COL     1   RATE   -0.289687    
 BOUNDARY      2   LAYER   1   ROW    14   COL     9   RATE    0.287884    



 STREAM LISTING     PERIOD      5   STEP        4

 LAYER ROW COL. STREAM  RCH.  FLOW INTO     FLOW TO   FLOW OUT OF   OVRLND.     DIRECT     STREAM       STREAM     STREAM     STREAM   STREAMBED  STREAMBED
                SEG.NO.  NO.  STRM. RCH.    AQUIFER    STRM. RCH.    RUNOFF     PRECIP       ET          HEAD       DEPTH      WIDTH   CONDCTNC.   GRADIENT

   1    1    1     1     1    1.0500E+01  1.5271E-01   1.0347E+01  0.000E+00  0.000E+00  0.000E+00  1.09396E+03  9.109E-01  8.677E+00  3.905E-02  1.304E+00
   1    2    2     1     2    1.0347E+01  2.3504E-01   1.0112E+01  0.000E+00  0.000E+00  0.000E+00  1.08896E+03  9.059E-01  8.597E+00  6.018E-02  1.302E+00
   1    3    3     1     3    1.0112E+01  1.9904E-01   9.9132E+00  0.000E+00  0.000E+00  0.000E+00  1.08332E+03  9.003E-01  8.505E+00  5.103E-02  1.300E+00
   1    3    4     1     4    9.9132E+00  1.8195E-01   9.7312E+00  0.000E+00  0.000E+00  0.000E+00  1.07830E+03  8.947E-01  8.417E+00  4.672E-02  1.298E+00
   1    4    5     2     1    7.7312E+00  2.8007E-01   7.4512E+00  0.000E+00  0.000E+00  0.000E+00  1.07252E+03  5.907E-01  1.200E+01  7.800E-02  1.197E+00
   1    5    6     2     2    7.4512E+00  2.1474E-01   7.2364E+00  0.000E+00  0.000E+00  0.000E+00  1.06709E+03  5.790E-01  1.200E+01  6.000E-02  1.193E+00
   1    6    6     2     3    7.2364E+00  2.1413E-01   7.0223E+00  0.000E+00  0.000E+00  0.000E+00  1.06236E+03  5.688E-01  1.200E+01  6.000E-02  1.190E+00
   1    7    6     2     4    7.0223E+00  2.1351E-01   6.8088E+00  0.000E+00  0.000E+00  0.000E+00  1.05763E+03  5.585E-01  1.200E+01  6.000E-02  1.186E+00
   1    8    6     2     5    6.8088E+00  2.1289E-01   6.5959E+00  0.000E+00  0.000E+00  0.000E+00  1.05291E+03  5.481E-01  1.200E+01  6.000E-02  1.183E+00
   1    3    5     3     1    2.0000E+00  2.8252E-01   1.7175E+00  0.000E+00  0.000E+00  0.000E+00  1.07555E+03  1.909E+00  9.636E+00  7.227E-02  1.955E+00
   1    3    6     3     2    1.7175E+00  2.4905E-01   1.4684E+00  0.000E+00  0.000E+00  0.000E+00  1.07264E+03  1.727E+00  8.909E+00  6.682E-02  1.864E+00
   1    3    7     3     3    1.4684E+00  1.9718E-01   1.2712E+00  0.000E+00  0.000E+00  0.000E+00  1.06987E+03  1.555E+00  8.218E+00  5.547E-02  1.777E+00
   1    4    8     3     4    1.2712E+00  2.2567E-01   1.0456E+00  0.000E+00  0.000E+00  0.000E+00  1.06682E+03  1.364E+00  7.455E+00  6.709E-02  1.682E+00
   1    5    8     3     5    1.0456E+00  1.5790E-01   8.8768E-01  0.000E+00  0.000E+00  0.000E+00  1.06362E+03  1.164E+00  6.655E+00  4.991E-02  1.582E+00
   1    6    8     3     6    8.8768E-01  5.5980E-02   8.3170E-01  0.000E+00  0.000E+00  0.000E+00  1.06158E+03  1.036E+00  6.145E+00  1.844E-02  1.518E+00
   1    5   10     4     1    1.0000E+01  9.0919E-02   9.9091E+00  0.000E+00  0.000E+00  0.000E+00  1.07836E+03  6.368E-01  1.000E+01  2.500E-02  1.212E+00
   1    5    9     4     2    9.9091E+00  1.8158E-01   9.7275E+00  0.000E+00  0.000E+00  0.000E+00  1.07154E+03  6.315E-01  1.000E+01  5.000E-02  1.211E+00
   1    6    8     4     3    9.7275E+00  1.2689E-01   9.6006E+00  0.000E+00  0.000E+00  0.000E+00  1.06381E+03  6.256E-01  1.000E+01  3.500E-02  1.209E+00
   1    6    8     5     1    1.0432E+01  2.2686E-01   1.0205E+01  0.000E+00  0.000E+00  0.000E+00  1.05868E+03  6.790E-01  1.542E+01  6.166E-02  1.226E+00
   1    7    7     5     2    1.0205E+01  2.7894E-01   9.9265E+00  0.000E+00  0.000E+00  0.000E+00  1.05417E+03  6.732E-01  1.519E+01  7.594E-02  1.224E+00
   1    8    7     5     3    9.9265E+00  1.9221E-01   9.7343E+00  0.000E+00  0.000E+00  0.000E+00  1.04992E+03  6.676E-01  1.497E+01  5.241E-02  1.223E+00
   1    8    6     5     4    9.7343E+00  1.3577E-01   9.5985E+00  0.000E+00  0.000E+00  0.000E+00  1.04691E+03  6.637E-01  1.482E+01  3.706E-02  1.221E+00
   1    9    6     6     1    1.2474E+01  2.2801E-01   1.2246E+01  0.000E+00  0.000E+00  0.000E+00  1.04353E+03  8.002E-01  1.200E+01  6.000E-02  1.267E+00
   1   10    7     6     2    1.2246E+01  2.2748E-01   1.2019E+01  0.000E+00  0.000E+00  0.000E+00  1.03897E+03  7.913E-01  1.200E+01  6.000E-02  1.264E+00
   1   11    7     6     3    1.2019E+01  2.2694E-01   1.1792E+01  0.000E+00  0.000E+00  0.000E+00  1.03442E+03  7.824E-01  1.200E+01  6.000E-02  1.261E+00
   1   12    7     6     4    1.1792E+01  2.2640E-01   1.1566E+01  0.000E+00  0.000E+00  0.000E+00  1.02986E+03  7.734E-01  1.200E+01  6.000E-02  1.258E+00
   1   13    7     6     5    1.1566E+01 -4.2502E-02   1.1608E+01  0.000E+00  0.000E+00  0.000E+00  1.02668E+03  7.698E-01  1.200E+01  2.400E-01 -5.903E-02
   1   14    9     7     1    1.5000E+02  1.3670E+00   1.4863E+02  0.000E+00  0.000E+00  0.000E+00  1.03987E+03  2.288E+00  5.529E+01  5.593E-01  8.147E-01
   1   13    8     7     2    1.4863E+02  1.9170E+00   1.4672E+02  0.000E+00  0.000E+00  0.000E+00  1.03478E+03  2.279E+00  5.526E+01  6.148E-01  1.039E+00
   1   13    7     7     3    1.4672E+02  1.5820E+00   1.4513E+02  0.000E+00  0.000E+00  0.000E+00  1.02969E+03  2.270E+00  5.521E+01  5.584E-01  9.443E-01
   1   13    6     8     1    1.5674E+02  9.4483E-01   1.5580E+02  0.000E+00  0.000E+00  0.000E+00  1.02474E+03  2.860E+00  4.148E+01  4.227E-01  7.451E-01
   1   13    5     8     2    1.5580E+02  2.0029E-01   1.5560E+02  0.000E+00  0.000E+00  0.000E+00  1.01848E+03  2.856E+00  4.142E+01  4.221E-01  1.582E-01
   1   13    4     8     3    1.5560E+02 -2.5418E+00   1.5814E+02  0.000E+00  0.000E+00  0.000E+00  1.01224E+03  2.865E+00  4.154E+01  4.233E+00 -2.002E-01
   1   13    3     8     4    1.5814E+02 -3.8140E+00   1.6195E+02  0.000E+00  0.000E+00  0.000E+00  1.00601E+03  2.886E+00  4.185E+01  4.265E+00 -2.981E-01
   1   13    2     8     5    1.6195E+02 -2.8398E+00   1.6479E+02  0.000E+00  0.000E+00  0.000E+00  9.99784E+02  2.909E+00  4.217E+01  4.298E+00 -2.203E-01
   1   13    1     8     6    1.6479E+02 -2.1350E+00   1.6693E+02  0.000E+00  0.000E+00  0.000E+00  9.94800E+02  2.925E+00  4.241E+01  2.593E+00 -2.744E-01
   1    8    6     9     1    3.7200E+00  0.0000E+00   3.7200E+00  0.000E+00  0.000E+00  0.000E+00  1.08000E+03  1.252E+00  4.000E+00  0.000E+00  1.417E+00
   1    8    5     9     2    3.7200E+00  0.0000E+00   3.7200E+00  0.000E+00  0.000E+00  0.000E+00  1.07950E+03  1.252E+00  4.000E+00  0.000E+00  1.417E+00



 UBDSV3 SAVING "           GW ET" ON UNIT  61 AT TIME STEP 4, STRESS PERIOD 5
 UBDSV3 SAVING "    UZF RECHARGE" ON UNIT  61 AT TIME STEP 4, STRESS PERIOD 5
 UBDSV3 SAVING " SURFACE LEAKAGE" ON UNIT  61 AT TIME STEP 4, STRESS PERIOD 5
 UBDSV3 SAVING "       HORT+DUNN" ON UNIT  61 AT TIME STEP 4, STRESS PERIOD 5
 UBDSV3 SAVING "  STORAGE CHANGE" ON UNIT  61 AT TIME STEP 4, STRESS PERIOD 5


UNSATURATED ZONE PACKAGE VOLUMETRIC BUDGET FOR  TIME STEP     4 STRESS PERIOD    5
  ------------------------------------------------------------------------------



     CUMULATIVE VOLUMES      L**3       RATES FOR THIS TIME STEP      L**3/T
     ------------------                 ------------------------

           IN:                                      IN:
           ---                                      ---
        INFILTRATION =     8364323.1913          INFILTRATION =           4.5676

          OUT:                                     OUT:
          ----                                     ----
              UZF ET =     8207185.0114                UZF ET =           4.5675
        UZF RECHARGE =       73224.0000          UZF RECHARGE =       0.0000E+00

            IN - OUT =       83914.1800              IN - OUT =       7.3016E-05

          STORAGE:                                 STORAGE:
          --------                                 --------
      STORAGE CHANGE =       83913.5735        STORAGE CHANGE =       7.3210E-05

 PERCENT DISCREPANCY IS DIFFERENCE BETWEEN IN-OUT MINUS CHANGE IN STORAGE
 DIVIDED BY THE AVERAGE OF IN AND OUT TIMES 100

 PERCENT DISCREPANCY =           0.00     PERCENT DISCREPANCY =          -0.00






 

            AG WELLS      PERIOD    5   STEP   4
 AG WELL      1   LAYER   1   ROW     6   COL     4   RATE     0.00000    
 AG WELL      2   LAYER   1   ROW     6   COL     5   RATE     0.00000    
 AG WELL      3   LAYER   1   ROW     7   COL     4   RATE     0.00000    
 AG WELL      4   LAYER   1   ROW     7   COL     5   RATE     0.00000    
 AG WELL      5   LAYER   1   ROW     8   COL     4   RATE     0.00000    
 AG WELL      6   LAYER   1   ROW     8   COL     5   RATE     0.00000    
 
 

   DIVERSION SEGMENTS     PERIOD    5   STEP   4
 SEGMENT      9   RATE     3.72000    
 
 

        SW IRRIGATION     PERIOD    5   STEP   4
 SEGMENT      9   ROW     6   COL     4   RATE    0.620012    
 SEGMENT      9   ROW     6   COL     5   RATE    0.620012    
 SEGMENT      9   ROW     7   COL     4   RATE    0.620012    
 SEGMENT      9   ROW     7   COL     5   RATE    0.620012    
 SEGMENT      9   ROW     8   COL     4   RATE    0.620012    
 SEGMENT      9   ROW     8   COL     5   RATE    0.620012    
 
 

        GW IRRIGATION     PERIOD    5   STEP   4
 AG WELL      1   ROW     6   COL     4   RATE     0.00000    
 AG WELL      2   ROW     6   COL     5   RATE     0.00000    
 AG WELL      3   ROW     7   COL     4   RATE     0.00000    
 AG WELL      4   ROW     7   COL     5   RATE     0.00000    
 AG WELL      5   ROW     8   COL     4   RATE     0.00000    
 AG WELL      6   ROW     8   COL     5   RATE     0.00000    
 
1
  VOLUMETRIC BUDGET FOR AGRICULTURAL FIELDS AT  END OF TIME STEP    4, STRESS PERIOD   5
  ------------------------------------------------------------------------------

     CUMULATIVE VOLUMES      L**3       RATES FOR THIS TIME STEP      L**3/T
     ------------------                 ------------------------

           IN:                                      IN:
           ---                                      ---
               AG WELLS  =       76629.9531                 AG WELLS  =           0.0000
      DIVERSION SEGMENTS =     1230480.0000        DIVERSION SEGMENTS =           3.7200
       IRRIGATION PONDS  =           0.0000         IRRIGATION PONDS  =           0.0000
           GW IRRIGATION =           0.0000             GW IRRIGATION =           0.0000
           SW IRRIGATION =           0.0000             SW IRRIGATION =           0.0000
        SYSTEM LOSSES GW =           0.0000          SYSTEM LOSSES GW =           0.0000
        SYSTEM LOSSES SW =           0.0000          SYSTEM LOSSES SW =           0.0000

                TOTAL IN =     1307110.0000                  TOTAL IN =           3.7200

          OUT:                                     OUT:
          ----                                     ----
               AG WELLS  =           0.0000                 AG WELLS  =           0.0000
      DIVERSION SEGMENTS =           0.0000        DIVERSION SEGMENTS =           0.0000
       IRRIGATION PONDS  =           0.0000         IRRIGATION PONDS  =           0.0000
           GW IRRIGATION =       76629.9531             GW IRRIGATION =           0.0000
           SW IRRIGATION =     1230504.6250             SW IRRIGATION =           3.7201
        SYSTEM LOSSES GW =           0.0000          SYSTEM LOSSES GW =           0.0000
        SYSTEM LOSSES SW =           0.0000          SYSTEM LOSSES SW =           0.0000

               TOTAL OUT =     1307134.6250                 TOTAL OUT =           3.7201

                IN - OUT =         -24.6250                  IN - OUT =      -7.4148E-05

     PERCENT DISCREPANCY =          -0.00         PERCENT DISCREPANCY =          -0.00



1
  VOLUMETRIC BUDGET FOR ENTIRE MODEL AT END OF TIME STEP    4, STRESS PERIOD   5
  ------------------------------------------------------------------------------

     CUMULATIVE VOLUMES      L**3       RATES FOR THIS TIME STEP      L**3/T
     ------------------                 ------------------------

           IN:                                      IN:
           ---                                      ---
             STORAGE     =     4965938.0000               STORAGE     =           1.6166
       CONSTANT HEAD     =           0.0000         CONSTANT HEAD     =           0.0000
     HEAD DEP BOUNDS     =     2396733.7500       HEAD DEP BOUNDS     =           0.2879
      STREAM LEAKAGE     =    97394352.0000        STREAM LEAKAGE     =          11.2255
        UZF RECHARGE     =       73223.9531          UZF RECHARGE     =           0.0000
               GW ET     =           0.0000                 GW ET     =           0.0000
     SURFACE LEAKAGE     =           0.0000       SURFACE LEAKAGE     =           0.0000
           AG WELLS      =           0.0000             AG WELLS      =           0.0000

                TOTAL IN =   104830248.0000                  TOTAL IN =          13.1299

          OUT:                                     OUT:
          ----                                     ----
             STORAGE     =    18056974.0000               STORAGE     =           1.4671
       CONSTANT HEAD     =           0.0000         CONSTANT HEAD     =           0.0000
     HEAD DEP BOUNDS     =     2399342.7500       HEAD DEP BOUNDS     =           0.2897
      STREAM LEAKAGE     =    84301056.0000        STREAM LEAKAGE     =          11.3731
        UZF RECHARGE     =           0.0000          UZF RECHARGE     =           0.0000
               GW ET     =           0.0000                 GW ET     =           0.0000
     SURFACE LEAKAGE     =           0.0000       SURFACE LEAKAGE     =           0.0000
           AG WELLS      =       76629.9531             AG WELLS      =           0.0000

               TOTAL OUT =   104834008.0000                 TOTAL OUT =          13.1299

                IN - OUT =       -3760.0000                  IN - OUT =       3.4332E-05

     PERCENT DISCREPANCY =          -0.00         PERCENT DISCREPANCY =           0.00






         TIME SUMMARY AT END OF TIME STEP    4 IN STRESS PERIOD    5
                    SECONDS     MINUTES      HOURS       DAYS        YEARS
                    -----------------------------------------------------------
   TIME STEP LENGTH  87667.      1461.1      24.352      1.0147     2.77799E-03
 STRESS PERIOD TIME 3.50667E+05  5844.4      97.407      4.0586     1.11120E-02
         TOTAL TIME 8.32706E+06 1.38784E+05  2313.1      96.378     0.26387    
1
 
 SOLVING FOR HEAD 
                                                   Max.-Head-Change                         Max.-Flux-Residual
  Residual-Control   Outer-Iter.   Inner-Iter.     Column Row Layer    Maximum-Head-Change  Column Row Layer    Maximum-Flux-Residual          L2-NORM 
          0                 1           2             2   13     1      -0.4022676146E-02       2   13    1        -0.2259394012E+00      0.4765152079E+00
          0                 2           2             2   13     1       0.3758293084E-03       4   13    1         0.2179480410E-01      0.4676087704E-01
          0                 3           2             4    7     1      -0.1154105725E-01       4    8    1        -0.6198635543E+00      0.1525270751E+01
          0                 4           2             4    7     1       0.1201653548E-01       4    8    1         0.6633965028E+00      0.1624973709E+01
          0                 5           2             4    7     1      -0.4782677463E-03       4    8    1        -0.2714062884E-01      0.6647878594E-01
          0                 6           1             4    7     1       0.5905029680E-05       4    7    1         0.3444177410E-03      0.8436207444E-03

    ------------------------------------------------
       NWT REQUIRED            6 OUTER ITERATIONS 
       AND A TOTAL OF         11 INNER ITERATIONS.
    ------------------------------------------------

 NO OUTPUT CONTROL FOR STRESS PERIOD    5   TIME STEP    5
 
 SOLVING FOR HEAD 
                                                   Max.-Head-Change                         Max.-Flux-Residual
  Residual-Control   Outer-Iter.   Inner-Iter.     Column Row Layer    Maximum-Head-Change  Column Row Layer    Maximum-Flux-Residual          L2-NORM 
          0                 1           2             2   13     1      -0.3632353556E-02       2   13    1        -0.2039865896E+00      0.4420484600E+00
          0                 2           2             2   13     1       0.3395391571E-03       2   13    1         0.1960063521E-01      0.4342931824E-01
          0                 3           2             4    7     1      -0.1154102810E-01       4    8    1        -0.6198629304E+00      0.1525272092E+01
          0                 4           2             4    7     1       0.1201653022E-01       4    8    1         0.6633962801E+00      0.1624973255E+01
          0                 5           2             4    7     1      -0.4782640364E-03       4    8    1        -0.2714042102E-01      0.6647796004E-01
          0                 6           1             4    7     1       0.5901577127E-05       4    7    1         0.3442164043E-03      0.8431563570E-03

    ------------------------------------------------
       NWT REQUIRED            6 OUTER ITERATIONS 
       AND A TOTAL OF         11 INNER ITERATIONS.
    ------------------------------------------------

 OUTPUT CONTROL FOR STRESS PERIOD    5   TIME STEP    6
    PRINT BUDGET
    SAVE BUDGET
 UBDSV1 SAVING "         STORAGE" ON UNIT 102 AT TIME STEP 6, STRESS PERIOD 5
 UBDSV2 SAVING "   CONSTANT HEAD" ON UNIT 102 AT TIME STEP 6, STRESS PERIOD 5
 UBDSV1 SAVING "FLOW RIGHT FACE " ON UNIT 102 AT TIME STEP 6, STRESS PERIOD 5
 UBDSV1 SAVING "FLOW FRONT FACE " ON UNIT 102 AT TIME STEP 6, STRESS PERIOD 5

  HEAD DEP BOUNDS   PERIOD    5   STEP     6
 BOUNDARY      1   LAYER   1   ROW    13   COL     1   RATE   -0.289471    
 BOUNDARY      2   LAYER   1   ROW    14   COL     9   RATE    0.287886    



 STREAM LISTING     PERIOD      5   STEP        6

 LAYER ROW COL. STREAM  RCH.  FLOW INTO     FLOW TO   FLOW OUT OF   OVRLND.     DIRECT     STREAM       STREAM     STREAM     STREAM   STREAMBED  STREAMBED
                SEG.NO.  NO.  STRM. RCH.    AQUIFER    STRM. RCH.    RUNOFF     PRECIP       ET          HEAD       DEPTH      WIDTH   CONDCTNC.   GRADIENT

   1    1    1     1     1    1.0500E+01  1.5271E-01   1.0347E+01  0.000E+00  0.000E+00  0.000E+00  1.09396E+03  9.109E-01  8.677E+00  3.905E-02  1.304E+00
   1    2    2     1     2    1.0347E+01  2.3505E-01   1.0112E+01  0.000E+00  0.000E+00  0.000E+00  1.08896E+03  9.059E-01  8.597E+00  6.018E-02  1.302E+00
   1    3    3     1     3    1.0112E+01  1.9904E-01   9.9132E+00  0.000E+00  0.000E+00  0.000E+00  1.08332E+03  9.003E-01  8.505E+00  5.103E-02  1.300E+00
   1    3    4     1     4    9.9132E+00  1.8195E-01   9.7313E+00  0.000E+00  0.000E+00  0.000E+00  1.07830E+03  8.947E-01  8.417E+00  4.672E-02  1.298E+00
   1    4    5     2     1    7.7313E+00  2.8007E-01   7.4512E+00  0.000E+00  0.000E+00  0.000E+00  1.07252E+03  5.907E-01  1.200E+01  7.800E-02  1.197E+00
   1    5    6     2     2    7.4512E+00  2.1474E-01   7.2365E+00  0.000E+00  0.000E+00  0.000E+00  1.06709E+03  5.790E-01  1.200E+01  6.000E-02  1.193E+00
   1    6    6     2     3    7.2365E+00  2.1413E-01   7.0224E+00  0.000E+00  0.000E+00  0.000E+00  1.06236E+03  5.688E-01  1.200E+01  6.000E-02  1.190E+00
   1    7    6     2     4    7.0224E+00  2.1351E-01   6.8088E+00  0.000E+00  0.000E+00  0.000E+00  1.05763E+03  5.585E-01  1.200E+01  6.000E-02  1.186E+00
   1    8    6     2     5    6.8088E+00  2.1289E-01   6.5960E+00  0.000E+00  0.000E+00  0.000E+00  1.05291E+03  5.481E-01  1.200E+01  6.000E-02  1.183E+00
   1    3    5     3     1    2.0000E+00  2.8252E-01   1.7175E+00  0.000E+00  0.000E+00  0.000E+00  1.07555E+03  1.909E+00  9.636E+00  7.227E-02  1.955E+00
   1    3    6     3     2    1.7175E+00  2.4905E-01   1.4684E+00  0.000E+00  0.000E+00  0.000E+00  1.07264E+03  1.727E+00  8.909E+00  6.682E-02  1.864E+00
   1    3    7     3     3    1.4684E+00  1.9718E-01   1.2712E+00  0.000E+00  0.000E+00  0.000E+00  1.06987E+03  1.555E+00  8.218E+00  5.547E-02  1.777E+00
   1    4    8     3     4    1.2712E+00  2.2567E-01   1.0456E+00  0.000E+00  0.000E+00  0.000E+00  1.06682E+03  1.364E+00  7.455E+00  6.709E-02  1.682E+00
   1    5    8     3     5    1.0456E+00  1.5790E-01   8.8768E-01  0.000E+00  0.000E+00  0.000E+00  1.06362E+03  1.164E+00  6.655E+00  4.991E-02  1.582E+00
   1    6    8     3     6    8.8768E-01  5.5980E-02   8.3170E-01  0.000E+00  0.000E+00  0.000E+00  1.06158E+03  1.036E+00  6.145E+00  1.844E-02  1.518E+00
   1    5   10     4     1    1.0000E+01  9.0919E-02   9.9091E+00  0.000E+00  0.000E+00  0.000E+00  1.07836E+03  6.368E-01  1.000E+01  2.500E-02  1.212E+00
   1    5    9     4     2    9.9091E+00  1.8158E-01   9.7275E+00  0.000E+00  0.000E+00  0.000E+00  1.07154E+03  6.315E-01  1.000E+01  5.000E-02  1.211E+00
   1    6    8     4     3    9.7275E+00  1.2689E-01   9.6006E+00  0.000E+00  0.000E+00  0.000E+00  1.06381E+03  6.256E-01  1.000E+01  3.500E-02  1.209E+00
   1    6    8     5     1    1.0432E+01  2.2686E-01   1.0205E+01  0.000E+00  0.000E+00  0.000E+00  1.05868E+03  6.790E-01  1.542E+01  6.166E-02  1.226E+00
   1    7    7     5     2    1.0205E+01  2.7894E-01   9.9265E+00  0.000E+00  0.000E+00  0.000E+00  1.05417E+03  6.732E-01  1.519E+01  7.594E-02  1.224E+00
   1    8    7     5     3    9.9265E+00  1.9221E-01   9.7343E+00  0.000E+00  0.000E+00  0.000E+00  1.04992E+03  6.676E-01  1.497E+01  5.241E-02  1.223E+00
   1    8    6     5     4    9.7343E+00  1.3577E-01   9.5985E+00  0.000E+00  0.000E+00  0.000E+00  1.04691E+03  6.637E-01  1.482E+01  3.706E-02  1.221E+00
   1    9    6     6     1    1.2474E+01  2.2801E-01   1.2246E+01  0.000E+00  0.000E+00  0.000E+00  1.04353E+03  8.002E-01  1.200E+01  6.000E-02  1.267E+00
   1   10    7     6     2    1.2246E+01  2.2748E-01   1.2019E+01  0.000E+00  0.000E+00  0.000E+00  1.03897E+03  7.913E-01  1.200E+01  6.000E-02  1.264E+00
   1   11    7     6     3    1.2019E+01  2.2694E-01   1.1792E+01  0.000E+00  0.000E+00  0.000E+00  1.03442E+03  7.824E-01  1.200E+01  6.000E-02  1.261E+00
   1   12    7     6     4    1.1792E+01  2.2640E-01   1.1566E+01  0.000E+00  0.000E+00  0.000E+00  1.02986E+03  7.734E-01  1.200E+01  6.000E-02  1.258E+00
   1   13    7     6     5    1.1566E+01 -4.2279E-02   1.1608E+01  0.000E+00  0.000E+00  0.000E+00  1.02668E+03  7.697E-01  1.200E+01  2.400E-01 -5.872E-02
   1   14    9     7     1    1.5000E+02  1.3671E+00   1.4863E+02  0.000E+00  0.000E+00  0.000E+00  1.03987E+03  2.288E+00  5.529E+01  5.593E-01  8.148E-01
   1   13    8     7     2    1.4863E+02  1.9169E+00   1.4672E+02  0.000E+00  0.000E+00  0.000E+00  1.03478E+03  2.279E+00  5.526E+01  6.148E-01  1.039E+00
   1   13    7     7     3    1.4672E+02  1.5825E+00   1.4513E+02  0.000E+00  0.000E+00  0.000E+00  1.02969E+03  2.270E+00  5.521E+01  5.584E-01  9.446E-01
   1   13    6     8     1    1.5674E+02  9.4559E-01   1.5580E+02  0.000E+00  0.000E+00  0.000E+00  1.02474E+03  2.860E+00  4.148E+01  4.227E-01  7.458E-01
   1   13    5     8     2    1.5580E+02  2.0089E-01   1.5560E+02  0.000E+00  0.000E+00  0.000E+00  1.01848E+03  2.856E+00  4.142E+01  4.221E-01  1.587E-01
   1   13    4     8     3    1.5560E+02 -2.5034E+00   1.5810E+02  0.000E+00  0.000E+00  0.000E+00  1.01224E+03  2.864E+00  4.153E+01  4.232E+00 -1.972E-01
   1   13    3     8     4    1.5810E+02 -3.7787E+00   1.6188E+02  0.000E+00  0.000E+00  0.000E+00  1.00601E+03  2.886E+00  4.184E+01  4.264E+00 -2.954E-01
   1   13    2     8     5    1.6188E+02 -2.8012E+00   1.6468E+02  0.000E+00  0.000E+00  0.000E+00  9.99783E+02  2.908E+00  4.216E+01  4.297E+00 -2.173E-01
   1   13    1     8     6    1.6468E+02 -2.1218E+00   1.6680E+02  0.000E+00  0.000E+00  0.000E+00  9.94799E+02  2.924E+00  4.240E+01  2.593E+00 -2.728E-01
   1    8    6     9     1    3.7200E+00  0.0000E+00   3.7200E+00  0.000E+00  0.000E+00  0.000E+00  1.08000E+03  1.252E+00  4.000E+00  0.000E+00  1.417E+00
   1    8    5     9     2    3.7200E+00  0.0000E+00   3.7200E+00  0.000E+00  0.000E+00  0.000E+00  1.07950E+03  1.252E+00  4.000E+00  0.000E+00  1.417E+00



 UBDSV3 SAVING "           GW ET" ON UNIT  61 AT TIME STEP 6, STRESS PERIOD 5
 UBDSV3 SAVING "    UZF RECHARGE" ON UNIT  61 AT TIME STEP 6, STRESS PERIOD 5
 UBDSV3 SAVING " SURFACE LEAKAGE" ON UNIT  61 AT TIME STEP 6, STRESS PERIOD 5
 UBDSV3 SAVING "       HORT+DUNN" ON UNIT  61 AT TIME STEP 6, STRESS PERIOD 5
 UBDSV3 SAVING "  STORAGE CHANGE" ON UNIT  61 AT TIME STEP 6, STRESS PERIOD 5


UNSATURATED ZONE PACKAGE VOLUMETRIC BUDGET FOR  TIME STEP     6 STRESS PERIOD    5
  ------------------------------------------------------------------------------



     CUMULATIVE VOLUMES      L**3       RATES FOR THIS TIME STEP      L**3/T
     ------------------                 ------------------------

           IN:                                      IN:
           ---                                      ---
        INFILTRATION =     9165170.8081          INFILTRATION =           4.5676

          OUT:                                     OUT:
          ----                                     ----
              UZF ET =     9008019.9914                UZF ET =           4.5675
        UZF RECHARGE =       73224.0000          UZF RECHARGE =       0.0000E+00

            IN - OUT =       83926.8167              IN - OUT =       7.0870E-05

          STORAGE:                                 STORAGE:
          --------                                 --------
      STORAGE CHANGE =       83926.2136        STORAGE CHANGE =       7.0858E-05

 PERCENT DISCREPANCY IS DIFFERENCE BETWEEN IN-OUT MINUS CHANGE IN STORAGE
 DIVIDED BY THE AVERAGE OF IN AND OUT TIMES 100

 PERCENT DISCREPANCY =           0.00     PERCENT DISCREPANCY =           0.00






 

            AG WELLS      PERIOD    5   STEP   6
 AG WELL      1   LAYER   1   ROW     6   COL     4   RATE     0.00000    
 AG WELL      2   LAYER   1   ROW     6   COL     5   RATE     0.00000    
 AG WELL      3   LAYER   1   ROW     7   COL     4   RATE     0.00000    
 AG WELL      4   LAYER   1   ROW     7   COL     5   RATE     0.00000    
 AG WELL      5   LAYER   1   ROW     8   COL     4   RATE     0.00000    
 AG WELL      6   LAYER   1   ROW     8   COL     5   RATE     0.00000    
 
 

   DIVERSION SEGMENTS     PERIOD    5   STEP   6
 SEGMENT      9   RATE     3.72000    
 
 

        SW IRRIGATION     PERIOD    5   STEP   6
 SEGMENT      9   ROW     6   COL     4   RATE    0.620012    
 SEGMENT      9   ROW     6   COL     5   RATE    0.620012    
 SEGMENT      9   ROW     7   COL     4   RATE    0.620012    
 SEGMENT      9   ROW     7   COL     5   RATE    0.620012    
 SEGMENT      9   ROW     8   COL     4   RATE    0.620012    
 SEGMENT      9   ROW     8   COL     5   RATE    0.620012    
 
 

        GW IRRIGATION     PERIOD    5   STEP   6
 AG WELL      1   ROW     6   COL     4   RATE     0.00000    
 AG WELL      2   ROW     6   COL     5   RATE     0.00000    
 AG WELL      3   ROW     7   COL     4   RATE     0.00000    
 AG WELL      4   ROW     7   COL     5   RATE     0.00000    
 AG WELL      5   ROW     8   COL     4   RATE     0.00000    
 AG WELL      6   ROW     8   COL     5   RATE     0.00000    
 
1
  VOLUMETRIC BUDGET FOR AGRICULTURAL FIELDS AT  END OF TIME STEP    6, STRESS PERIOD   5
  ------------------------------------------------------------------------------

     CUMULATIVE VOLUMES      L**3       RATES FOR THIS TIME STEP      L**3/T
     ------------------                 ------------------------

           IN:                                      IN:
           ---                                      ---
               AG WELLS  =       76629.9531                 AG WELLS  =           0.0000
      DIVERSION SEGMENTS =     1882719.5000        DIVERSION SEGMENTS =           3.7200
       IRRIGATION PONDS  =           0.0000         IRRIGATION PONDS  =           0.0000
           GW IRRIGATION =           0.0000             GW IRRIGATION =           0.0000
           SW IRRIGATION =           0.0000             SW IRRIGATION =           0.0000
        SYSTEM LOSSES GW =           0.0000          SYSTEM LOSSES GW =           0.0000
        SYSTEM LOSSES SW =           0.0000          SYSTEM LOSSES SW =           0.0000

                TOTAL IN =     1959349.5000                  TOTAL IN =           3.7200

          OUT:                                     OUT:
          ----                                     ----
               AG WELLS  =           0.0000                 AG WELLS  =           0.0000
      DIVERSION SEGMENTS =           0.0000        DIVERSION SEGMENTS =           0.0000
       IRRIGATION PONDS  =           0.0000         IRRIGATION PONDS  =           0.0000
           GW IRRIGATION =       76629.9531             GW IRRIGATION =           0.0000
           SW IRRIGATION =     1882757.2500             SW IRRIGATION =           3.7201
        SYSTEM LOSSES GW =           0.0000          SYSTEM LOSSES GW =           0.0000
        SYSTEM LOSSES SW =           0.0000          SYSTEM LOSSES SW =           0.0000

               TOTAL OUT =     1959387.2500                 TOTAL OUT =           3.7201

                IN - OUT =         -37.7500                  IN - OUT =      -7.4148E-05

     PERCENT DISCREPANCY =          -0.00         PERCENT DISCREPANCY =          -0.00



1
  VOLUMETRIC BUDGET FOR ENTIRE MODEL AT END OF TIME STEP    6, STRESS PERIOD   5
  ------------------------------------------------------------------------------

     CUMULATIVE VOLUMES      L**3       RATES FOR THIS TIME STEP      L**3/T
     ------------------                 ------------------------

           IN:                                      IN:
           ---                                      ---
             STORAGE     =     5229232.0000               STORAGE     =           1.4653
       CONSTANT HEAD     =           0.0000         CONSTANT HEAD     =           0.0000
     HEAD DEP BOUNDS     =     2447209.7500       HEAD DEP BOUNDS     =           0.2879
      STREAM LEAKAGE     =    99362784.0000        STREAM LEAKAGE     =          11.2273
        UZF RECHARGE     =       73223.9531          UZF RECHARGE     =           0.0000
               GW ET     =           0.0000                 GW ET     =           0.0000
     SURFACE LEAKAGE     =           0.0000       SURFACE LEAKAGE     =           0.0000
           AG WELLS      =           0.0000             AG WELLS      =           0.0000

                TOTAL IN =   107112448.0000                  TOTAL IN =          12.9805

          OUT:                                     OUT:
          ----                                     ----
             STORAGE     =    18311084.0000               STORAGE     =           1.4436
       CONSTANT HEAD     =           0.0000         CONSTANT HEAD     =           0.0000
     HEAD DEP BOUNDS     =     2450106.0000       HEAD DEP BOUNDS     =           0.2895
      STREAM LEAKAGE     =    86278384.0000        STREAM LEAKAGE     =          11.2473
        UZF RECHARGE     =           0.0000          UZF RECHARGE     =           0.0000
               GW ET     =           0.0000                 GW ET     =           0.0000
     SURFACE LEAKAGE     =           0.0000       SURFACE LEAKAGE     =           0.0000
           AG WELLS      =       76629.9531             AG WELLS      =           0.0000

               TOTAL OUT =   107116208.0000                 TOTAL OUT =          12.9804

                IN - OUT =       -3760.0000                  IN - OUT =       3.4332E-05

     PERCENT DISCREPANCY =          -0.00         PERCENT DISCREPANCY =           0.00






         TIME SUMMARY AT END OF TIME STEP    6 IN STRESS PERIOD    5
                    SECONDS     MINUTES      HOURS       DAYS        YEARS
                    -----------------------------------------------------------
   TIME STEP LENGTH  87667.      1461.1      24.352      1.0147     2.77799E-03
 STRESS PERIOD TIME 5.26000E+05  8766.7      146.11      6.0880     1.66679E-02
         TOTAL TIME 8.50239E+06 1.41707E+05  2361.8      98.407     0.26942    
1
 
 SOLVING FOR HEAD 
                                                   Max.-Head-Change                         Max.-Flux-Residual
  Residual-Control   Outer-Iter.   Inner-Iter.     Column Row Layer    Maximum-Head-Change  Column Row Layer    Maximum-Flux-Residual          L2-NORM 
          0                 1           2             2   13     1      -0.3270588938E-02       2   13    1        -0.1836416479E+00      0.4115467507E+00
          0                 2           2             2   13     1       0.3058913766E-03       2   13    1         0.1765540163E-01      0.4048563929E-01
          0                 3           2             4    7     1      -0.1154100003E-01       4    8    1        -0.6198622655E+00      0.1525273570E+01
          0                 4           2             4    7     1       0.1201652504E-01       4    8    1         0.6633960545E+00      0.1624973046E+01
          0                 5           2             4    7     1      -0.4782667557E-03       4    6    1        -0.2715216296E-01      0.6648372821E-01
          0                 6           1             4    7     1       0.5904457727E-05       4    7    1         0.3444174529E-03      0.8426153469E-03

    ------------------------------------------------
       NWT REQUIRED            6 OUTER ITERATIONS 
       AND A TOTAL OF         11 INNER ITERATIONS.
    ------------------------------------------------

 OUTPUT CONTROL FOR STRESS PERIOD    5   TIME STEP    7
    PRINT BUDGET
    SAVE BUDGET
 UBDSV1 SAVING "         STORAGE" ON UNIT 102 AT TIME STEP 7, STRESS PERIOD 5
 UBDSV2 SAVING "   CONSTANT HEAD" ON UNIT 102 AT TIME STEP 7, STRESS PERIOD 5
 UBDSV1 SAVING "FLOW RIGHT FACE " ON UNIT 102 AT TIME STEP 7, STRESS PERIOD 5
 UBDSV1 SAVING "FLOW FRONT FACE " ON UNIT 102 AT TIME STEP 7, STRESS PERIOD 5

  HEAD DEP BOUNDS   PERIOD    5   STEP     7
 BOUNDARY      1   LAYER   1   ROW    13   COL     1   RATE   -0.289369    
 BOUNDARY      2   LAYER   1   ROW    14   COL     9   RATE    0.287887    



 STREAM LISTING     PERIOD      5   STEP        7

 LAYER ROW COL. STREAM  RCH.  FLOW INTO     FLOW TO   FLOW OUT OF   OVRLND.     DIRECT     STREAM       STREAM     STREAM     STREAM   STREAMBED  STREAMBED
                SEG.NO.  NO.  STRM. RCH.    AQUIFER    STRM. RCH.    RUNOFF     PRECIP       ET          HEAD       DEPTH      WIDTH   CONDCTNC.   GRADIENT

   1    1    1     1     1    1.0500E+01  1.5271E-01   1.0347E+01  0.000E+00  0.000E+00  0.000E+00  1.09396E+03  9.109E-01  8.677E+00  3.905E-02  1.304E+00
   1    2    2     1     2    1.0347E+01  2.3505E-01   1.0112E+01  0.000E+00  0.000E+00  0.000E+00  1.08896E+03  9.059E-01  8.597E+00  6.018E-02  1.302E+00
   1    3    3     1     3    1.0112E+01  1.9904E-01   9.9132E+00  0.000E+00  0.000E+00  0.000E+00  1.08332E+03  9.003E-01  8.505E+00  5.103E-02  1.300E+00
   1    3    4     1     4    9.9132E+00  1.8195E-01   9.7313E+00  0.000E+00  0.000E+00  0.000E+00  1.07830E+03  8.947E-01  8.417E+00  4.672E-02  1.298E+00
   1    4    5     2     1    7.7313E+00  2.8007E-01   7.4512E+00  0.000E+00  0.000E+00  0.000E+00  1.07252E+03  5.907E-01  1.200E+01  7.800E-02  1.197E+00
   1    5    6     2     2    7.4512E+00  2.1474E-01   7.2365E+00  0.000E+00  0.000E+00  0.000E+00  1.06709E+03  5.790E-01  1.200E+01  6.000E-02  1.193E+00
   1    6    6     2     3    7.2365E+00  2.1413E-01   7.0224E+00  0.000E+00  0.000E+00  0.000E+00  1.06236E+03  5.688E-01  1.200E+01  6.000E-02  1.190E+00
   1    7    6     2     4    7.0224E+00  2.1351E-01   6.8088E+00  0.000E+00  0.000E+00  0.000E+00  1.05763E+03  5.585E-01  1.200E+01  6.000E-02  1.186E+00
   1    8    6     2     5    6.8088E+00  2.1289E-01   6.5960E+00  0.000E+00  0.000E+00  0.000E+00  1.05291E+03  5.481E-01  1.200E+01  6.000E-02  1.183E+00
   1    3    5     3     1    2.0000E+00  2.8252E-01   1.7175E+00  0.000E+00  0.000E+00  0.000E+00  1.07555E+03  1.909E+00  9.636E+00  7.227E-02  1.955E+00
   1    3    6     3     2    1.7175E+00  2.4905E-01   1.4684E+00  0.000E+00  0.000E+00  0.000E+00  1.07264E+03  1.727E+00  8.909E+00  6.682E-02  1.864E+00
   1    3    7     3     3    1.4684E+00  1.9718E-01   1.2712E+00  0.000E+00  0.000E+00  0.000E+00  1.06987E+03  1.555E+00  8.218E+00  5.547E-02  1.777E+00
   1    4    8     3     4    1.2712E+00  2.2567E-01   1.0456E+00  0.000E+00  0.000E+00  0.000E+00  1.06682E+03  1.364E+00  7.455E+00  6.709E-02  1.682E+00
   1    5    8     3     5    1.0456E+00  1.5790E-01   8.8768E-01  0.000E+00  0.000E+00  0.000E+00  1.06362E+03  1.164E+00  6.655E+00  4.991E-02  1.582E+00
   1    6    8     3     6    8.8768E-01  5.5980E-02   8.3170E-01  0.000E+00  0.000E+00  0.000E+00  1.06158E+03  1.036E+00  6.145E+00  1.844E-02  1.518E+00
   1    5   10     4     1    1.0000E+01  9.0919E-02   9.9091E+00  0.000E+00  0.000E+00  0.000E+00  1.07836E+03  6.368E-01  1.000E+01  2.500E-02  1.212E+00
   1    5    9     4     2    9.9091E+00  1.8158E-01   9.7275E+00  0.000E+00  0.000E+00  0.000E+00  1.07154E+03  6.315E-01  1.000E+01  5.000E-02  1.211E+00
   1    6    8     4     3    9.7275E+00  1.2689E-01   9.6006E+00  0.000E+00  0.000E+00  0.000E+00  1.06381E+03  6.256E-01  1.000E+01  3.500E-02  1.209E+00
   1    6    8     5     1    1.0432E+01  2.2686E-01   1.0205E+01  0.000E+00  0.000E+00  0.000E+00  1.05868E+03  6.790E-01  1.542E+01  6.166E-02  1.226E+00
   1    7    7     5     2    1.0205E+01  2.7894E-01   9.9265E+00  0.000E+00  0.000E+00  0.000E+00  1.05417E+03  6.732E-01  1.519E+01  7.594E-02  1.224E+00
   1    8    7     5     3    9.9265E+00  1.9221E-01   9.7343E+00  0.000E+00  0.000E+00  0.000E+00  1.04992E+03  6.676E-01  1.497E+01  5.241E-02  1.223E+00
   1    8    6     5     4    9.7343E+00  1.3577E-01   9.5985E+00  0.000E+00  0.000E+00  0.000E+00  1.04691E+03  6.637E-01  1.482E+01  3.706E-02  1.221E+00
   1    9    6     6     1    1.2474E+01  2.2801E-01   1.2246E+01  0.000E+00  0.000E+00  0.000E+00  1.04353E+03  8.002E-01  1.200E+01  6.000E-02  1.267E+00
   1   10    7     6     2    1.2246E+01  2.2748E-01   1.2019E+01  0.000E+00  0.000E+00  0.000E+00  1.03897E+03  7.913E-01  1.200E+01  6.000E-02  1.264E+00
   1   11    7     6     3    1.2019E+01  2.2694E-01   1.1792E+01  0.000E+00  0.000E+00  0.000E+00  1.03442E+03  7.824E-01  1.200E+01  6.000E-02  1.261E+00
   1   12    7     6     4    1.1792E+01  2.2640E-01   1.1566E+01  0.000E+00  0.000E+00  0.000E+00  1.02986E+03  7.734E-01  1.200E+01  6.000E-02  1.258E+00
   1   13    7     6     5    1.1566E+01 -4.2171E-02   1.1608E+01  0.000E+00  0.000E+00  0.000E+00  1.02668E+03  7.697E-01  1.200E+01  2.400E-01 -5.857E-02
   1   14    9     7     1    1.5000E+02  1.3671E+00   1.4863E+02  0.000E+00  0.000E+00  0.000E+00  1.03987E+03  2.288E+00  5.529E+01  5.593E-01  8.148E-01
   1   13    8     7     2    1.4863E+02  1.9168E+00   1.4672E+02  0.000E+00  0.000E+00  0.000E+00  1.03478E+03  2.279E+00  5.526E+01  6.148E-01  1.039E+00
   1   13    7     7     3    1.4672E+02  1.5827E+00   1.4513E+02  0.000E+00  0.000E+00  0.000E+00  1.02969E+03  2.270E+00  5.521E+01  5.584E-01  9.448E-01
   1   13    6     8     1    1.5674E+02  9.4596E-01   1.5580E+02  0.000E+00  0.000E+00  0.000E+00  1.02474E+03  2.860E+00  4.148E+01  4.227E-01  7.460E-01
   1   13    5     8     2    1.5580E+02  2.0121E-01   1.5559E+02  0.000E+00  0.000E+00  0.000E+00  1.01848E+03  2.856E+00  4.142E+01  4.221E-01  1.589E-01
   1   13    4     8     3    1.5559E+02 -2.4868E+00   1.5808E+02  0.000E+00  0.000E+00  0.000E+00  1.01224E+03  2.864E+00  4.153E+01  4.232E+00 -1.959E-01
   1   13    3     8     4    1.5808E+02 -3.7630E+00   1.6184E+02  0.000E+00  0.000E+00  0.000E+00  1.00601E+03  2.886E+00  4.184E+01  4.264E+00 -2.942E-01
   1   13    2     8     5    1.6184E+02 -2.7840E+00   1.6463E+02  0.000E+00  0.000E+00  0.000E+00  9.99783E+02  2.908E+00  4.216E+01  4.296E+00 -2.160E-01
   1   13    1     8     6    1.6463E+02 -2.1155E+00   1.6674E+02  0.000E+00  0.000E+00  0.000E+00  9.94799E+02  2.924E+00  4.240E+01  2.592E+00 -2.720E-01
   1    8    6     9     1    3.7200E+00  0.0000E+00   3.7200E+00  0.000E+00  0.000E+00  0.000E+00  1.08000E+03  1.252E+00  4.000E+00  0.000E+00  1.417E+00
   1    8    5     9     2    3.7200E+00  0.0000E+00   3.7200E+00  0.000E+00  0.000E+00  0.000E+00  1.07950E+03  1.252E+00  4.000E+00  0.000E+00  1.417E+00



 UBDSV3 SAVING "           GW ET" ON UNIT  61 AT TIME STEP 7, STRESS PERIOD 5
 UBDSV3 SAVING "    UZF RECHARGE" ON UNIT  61 AT TIME STEP 7, STRESS PERIOD 5
 UBDSV3 SAVING " SURFACE LEAKAGE" ON UNIT  61 AT TIME STEP 7, STRESS PERIOD 5
 UBDSV3 SAVING "       HORT+DUNN" ON UNIT  61 AT TIME STEP 7, STRESS PERIOD 5
 UBDSV3 SAVING "  STORAGE CHANGE" ON UNIT  61 AT TIME STEP 7, STRESS PERIOD 5


UNSATURATED ZONE PACKAGE VOLUMETRIC BUDGET FOR  TIME STEP     7 STRESS PERIOD    5
  ------------------------------------------------------------------------------



     CUMULATIVE VOLUMES      L**3       RATES FOR THIS TIME STEP      L**3/T
     ------------------                 ------------------------

           IN:                                      IN:
           ---                                      ---
        INFILTRATION =     9565594.5462          INFILTRATION =           4.5676

          OUT:                                     OUT:
          ----                                     ----
              UZF ET =     9408437.4756                UZF ET =           4.5675
        UZF RECHARGE =       73224.0000          UZF RECHARGE =       0.0000E+00

            IN - OUT =       83933.0706              IN - OUT =       7.1108E-05

          STORAGE:                                 STORAGE:
          --------                                 --------
      STORAGE CHANGE =       83932.4574        STORAGE CHANGE =       7.1222E-05

 PERCENT DISCREPANCY IS DIFFERENCE BETWEEN IN-OUT MINUS CHANGE IN STORAGE
 DIVIDED BY THE AVERAGE OF IN AND OUT TIMES 100

 PERCENT DISCREPANCY =           0.00     PERCENT DISCREPANCY =           0.00






 

            AG WELLS      PERIOD    5   STEP   7
 AG WELL      1   LAYER   1   ROW     6   COL     4   RATE     0.00000    
 AG WELL      2   LAYER   1   ROW     6   COL     5   RATE     0.00000    
 AG WELL      3   LAYER   1   ROW     7   COL     4   RATE     0.00000    
 AG WELL      4   LAYER   1   ROW     7   COL     5   RATE     0.00000    
 AG WELL      5   LAYER   1   ROW     8   COL     4   RATE     0.00000    
 AG WELL      6   LAYER   1   ROW     8   COL     5   RATE     0.00000    
 
 

   DIVERSION SEGMENTS     PERIOD    5   STEP   7
 SEGMENT      9   RATE     3.72000    
 
 

        SW IRRIGATION     PERIOD    5   STEP   7
 SEGMENT      9   ROW     6   COL     4   RATE    0.620012    
 SEGMENT      9   ROW     6   COL     5   RATE    0.620012    
 SEGMENT      9   ROW     7   COL     4   RATE    0.620012    
 SEGMENT      9   ROW     7   COL     5   RATE    0.620012    
 SEGMENT      9   ROW     8   COL     4   RATE    0.620012    
 SEGMENT      9   ROW     8   COL     5   RATE    0.620012    
 
 

        GW IRRIGATION     PERIOD    5   STEP   7
 AG WELL      1   ROW     6   COL     4   RATE     0.00000    
 AG WELL      2   ROW     6   COL     5   RATE     0.00000    
 AG WELL      3   ROW     7   COL     4   RATE     0.00000    
 AG WELL      4   ROW     7   COL     5   RATE     0.00000    
 AG WELL      5   ROW     8   COL     4   RATE     0.00000    
 AG WELL      6   ROW     8   COL     5   RATE     0.00000    
 
1
  VOLUMETRIC BUDGET FOR AGRICULTURAL FIELDS AT  END OF TIME STEP    7, STRESS PERIOD   5
  ------------------------------------------------------------------------------

     CUMULATIVE VOLUMES      L**3       RATES FOR THIS TIME STEP      L**3/T
     ------------------                 ------------------------

           IN:                                      IN:
           ---                                      ---
               AG WELLS  =       76629.9531                 AG WELLS  =           0.0000
      DIVERSION SEGMENTS =     2208839.2500        DIVERSION SEGMENTS =           3.7200
       IRRIGATION PONDS  =           0.0000         IRRIGATION PONDS  =           0.0000
           GW IRRIGATION =           0.0000             GW IRRIGATION =           0.0000
           SW IRRIGATION =           0.0000             SW IRRIGATION =           0.0000
        SYSTEM LOSSES GW =           0.0000          SYSTEM LOSSES GW =           0.0000
        SYSTEM LOSSES SW =           0.0000          SYSTEM LOSSES SW =           0.0000

                TOTAL IN =     2285469.2500                  TOTAL IN =           3.7200

          OUT:                                     OUT:
          ----                                     ----
               AG WELLS  =           0.0000                 AG WELLS  =           0.0000
      DIVERSION SEGMENTS =           0.0000        DIVERSION SEGMENTS =           0.0000
       IRRIGATION PONDS  =           0.0000         IRRIGATION PONDS  =           0.0000
           GW IRRIGATION =       76629.9531             GW IRRIGATION =           0.0000
           SW IRRIGATION =     2208883.5000             SW IRRIGATION =           3.7201
        SYSTEM LOSSES GW =           0.0000          SYSTEM LOSSES GW =           0.0000
        SYSTEM LOSSES SW =           0.0000          SYSTEM LOSSES SW =           0.0000

               TOTAL OUT =     2285513.5000                 TOTAL OUT =           3.7201

                IN - OUT =         -44.2500                  IN - OUT =      -7.4387E-05

     PERCENT DISCREPANCY =          -0.00         PERCENT DISCREPANCY =          -0.00



1
  VOLUMETRIC BUDGET FOR ENTIRE MODEL AT END OF TIME STEP    7, STRESS PERIOD   5
  ------------------------------------------------------------------------------

     CUMULATIVE VOLUMES      L**3       RATES FOR THIS TIME STEP      L**3/T
     ------------------                 ------------------------

           IN:                                      IN:
           ---                                      ---
             STORAGE     =     5351775.5000               STORAGE     =           1.3978
       CONSTANT HEAD     =           0.0000         CONSTANT HEAD     =           0.0000
     HEAD DEP BOUNDS     =     2472447.7500       HEAD DEP BOUNDS     =           0.2879
      STREAM LEAKAGE     =   100347120.0000        STREAM LEAKAGE     =          11.2282
        UZF RECHARGE     =       73223.9531          UZF RECHARGE     =           0.0000
               GW ET     =           0.0000                 GW ET     =           0.0000
     SURFACE LEAKAGE     =           0.0000       SURFACE LEAKAGE     =           0.0000
           AG WELLS      =           0.0000             AG WELLS      =           0.0000

                TOTAL IN =   108244568.0000                  TOTAL IN =          12.9139

          OUT:                                     OUT:
          ----                                     ----
             STORAGE     =    18436720.0000               STORAGE     =           1.4331
       CONSTANT HEAD     =           0.0000         CONSTANT HEAD     =           0.0000
     HEAD DEP BOUNDS     =     2475474.0000       HEAD DEP BOUNDS     =           0.2894
      STREAM LEAKAGE     =    87259496.0000        STREAM LEAKAGE     =          11.1914
        UZF RECHARGE     =           0.0000          UZF RECHARGE     =           0.0000
               GW ET     =           0.0000                 GW ET     =           0.0000
     SURFACE LEAKAGE     =           0.0000       SURFACE LEAKAGE     =           0.0000
           AG WELLS      =       76629.9531             AG WELLS      =           0.0000

               TOTAL OUT =   108248320.0000                 TOTAL OUT =          12.9139

                IN - OUT =       -3752.0000                  IN - OUT =       3.4332E-05

     PERCENT DISCREPANCY =          -0.00         PERCENT DISCREPANCY =           0.00






         TIME SUMMARY AT END OF TIME STEP    7 IN STRESS PERIOD    5
                    SECONDS     MINUTES      HOURS       DAYS        YEARS
                    -----------------------------------------------------------
   TIME STEP LENGTH  87667.      1461.1      24.352      1.0147     2.77799E-03
 STRESS PERIOD TIME 6.13667E+05  10228.      170.46      7.1026     1.94459E-02
         TOTAL TIME 8.59006E+06 1.43168E+05  2386.1      99.422     0.27220    
1
 
 SOLVING FOR HEAD 
                                                   Max.-Head-Change                         Max.-Flux-Residual
  Residual-Control   Outer-Iter.   Inner-Iter.     Column Row Layer    Maximum-Head-Change  Column Row Layer    Maximum-Flux-Residual          L2-NORM 
          0                 1           2             2   13     1      -0.2935195890E-02       2   13    1        -0.1647813322E+00      0.3847039652E+00
          0                 2           2             2   13     1       0.2746852017E-03       2   13    1         0.1585145114E-01      0.3790201735E-01
          0                 3           2             4    7     1      -0.1154088604E-01       4    8    1        -0.6198616636E+00      0.1525274469E+01
          0                 4           2             4    7     1       0.1201643407E-01       4    8    1         0.6633958731E+00      0.1624827399E+01
          0                 5           2             4    7     1      -0.4782689192E-03       4    6    1        -0.2715911923E-01      0.6648665697E-01
          0                 6           1             4    7     1       0.5905044466E-05       4    6    1         0.3446437590E-03      0.8437182300E-03

    ------------------------------------------------
       NWT REQUIRED            6 OUTER ITERATIONS 
       AND A TOTAL OF         11 INNER ITERATIONS.
    ------------------------------------------------

 OUTPUT CONTROL FOR STRESS PERIOD    5   TIME STEP    8
    PRINT BUDGET
    SAVE BUDGET
 UBDSV1 SAVING "         STORAGE" ON UNIT 102 AT TIME STEP 8, STRESS PERIOD 5
 UBDSV2 SAVING "   CONSTANT HEAD" ON UNIT 102 AT TIME STEP 8, STRESS PERIOD 5
 UBDSV1 SAVING "FLOW RIGHT FACE " ON UNIT 102 AT TIME STEP 8, STRESS PERIOD 5
 UBDSV1 SAVING "FLOW FRONT FACE " ON UNIT 102 AT TIME STEP 8, STRESS PERIOD 5

  HEAD DEP BOUNDS   PERIOD    5   STEP     8
 BOUNDARY      1   LAYER   1   ROW    13   COL     1   RATE   -0.289271    
 BOUNDARY      2   LAYER   1   ROW    14   COL     9   RATE    0.287888    



 STREAM LISTING     PERIOD      5   STEP        8

 LAYER ROW COL. STREAM  RCH.  FLOW INTO     FLOW TO   FLOW OUT OF   OVRLND.     DIRECT     STREAM       STREAM     STREAM     STREAM   STREAMBED  STREAMBED
                SEG.NO.  NO.  STRM. RCH.    AQUIFER    STRM. RCH.    RUNOFF     PRECIP       ET          HEAD       DEPTH      WIDTH   CONDCTNC.   GRADIENT

   1    1    1     1     1    1.0500E+01  1.5271E-01   1.0347E+01  0.000E+00  0.000E+00  0.000E+00  1.09396E+03  9.109E-01  8.677E+00  3.905E-02  1.304E+00
   1    2    2     1     2    1.0347E+01  2.3505E-01   1.0112E+01  0.000E+00  0.000E+00  0.000E+00  1.08896E+03  9.059E-01  8.597E+00  6.018E-02  1.302E+00
   1    3    3     1     3    1.0112E+01  1.9904E-01   9.9132E+00  0.000E+00  0.000E+00  0.000E+00  1.08332E+03  9.003E-01  8.505E+00  5.103E-02  1.300E+00
   1    3    4     1     4    9.9132E+00  1.8195E-01   9.7313E+00  0.000E+00  0.000E+00  0.000E+00  1.07830E+03  8.947E-01  8.417E+00  4.672E-02  1.298E+00
   1    4    5     2     1    7.7313E+00  2.8007E-01   7.4512E+00  0.000E+00  0.000E+00  0.000E+00  1.07252E+03  5.907E-01  1.200E+01  7.800E-02  1.197E+00
   1    5    6     2     2    7.4512E+00  2.1474E-01   7.2365E+00  0.000E+00  0.000E+00  0.000E+00  1.06709E+03  5.790E-01  1.200E+01  6.000E-02  1.193E+00
   1    6    6     2     3    7.2365E+00  2.1413E-01   7.0224E+00  0.000E+00  0.000E+00  0.000E+00  1.06236E+03  5.688E-01  1.200E+01  6.000E-02  1.190E+00
   1    7    6     2     4    7.0224E+00  2.1351E-01   6.8088E+00  0.000E+00  0.000E+00  0.000E+00  1.05763E+03  5.585E-01  1.200E+01  6.000E-02  1.186E+00
   1    8    6     2     5    6.8088E+00  2.1289E-01   6.5960E+00  0.000E+00  0.000E+00  0.000E+00  1.05291E+03  5.481E-01  1.200E+01  6.000E-02  1.183E+00
   1    3    5     3     1    2.0000E+00  2.8252E-01   1.7175E+00  0.000E+00  0.000E+00  0.000E+00  1.07555E+03  1.909E+00  9.636E+00  7.227E-02  1.955E+00
   1    3    6     3     2    1.7175E+00  2.4905E-01   1.4684E+00  0.000E+00  0.000E+00  0.000E+00  1.07264E+03  1.727E+00  8.909E+00  6.682E-02  1.864E+00
   1    3    7     3     3    1.4684E+00  1.9718E-01   1.2712E+00  0.000E+00  0.000E+00  0.000E+00  1.06987E+03  1.555E+00  8.218E+00  5.547E-02  1.777E+00
   1    4    8     3     4    1.2712E+00  2.2567E-01   1.0456E+00  0.000E+00  0.000E+00  0.000E+00  1.06682E+03  1.364E+00  7.455E+00  6.709E-02  1.682E+00
   1    5    8     3     5    1.0456E+00  1.5790E-01   8.8768E-01  0.000E+00  0.000E+00  0.000E+00  1.06362E+03  1.164E+00  6.655E+00  4.991E-02  1.582E+00
   1    6    8     3     6    8.8768E-01  5.5980E-02   8.3170E-01  0.000E+00  0.000E+00  0.000E+00  1.06158E+03  1.036E+00  6.145E+00  1.844E-02  1.518E+00
   1    5   10     4     1    1.0000E+01  9.0919E-02   9.9091E+00  0.000E+00  0.000E+00  0.000E+00  1.07836E+03  6.368E-01  1.000E+01  2.500E-02  1.212E+00
   1    5    9     4     2    9.9091E+00  1.8158E-01   9.7275E+00  0.000E+00  0.000E+00  0.000E+00  1.07154E+03  6.315E-01  1.000E+01  5.000E-02  1.211E+00
   1    6    8     4     3    9.7275E+00  1.2689E-01   9.6006E+00  0.000E+00  0.000E+00  0.000E+00  1.06381E+03  6.256E-01  1.000E+01  3.500E-02  1.209E+00
   1    6    8     5     1    1.0432E+01  2.2686E-01   1.0205E+01  0.000E+00  0.000E+00  0.000E+00  1.05868E+03  6.790E-01  1.542E+01  6.166E-02  1.226E+00
   1    7    7     5     2    1.0205E+01  2.7894E-01   9.9265E+00  0.000E+00  0.000E+00  0.000E+00  1.05417E+03  6.732E-01  1.519E+01  7.594E-02  1.224E+00
   1    8    7     5     3    9.9265E+00  1.9221E-01   9.7343E+00  0.000E+00  0.000E+00  0.000E+00  1.04992E+03  6.676E-01  1.497E+01  5.241E-02  1.223E+00
   1    8    6     5     4    9.7343E+00  1.3577E-01   9.5985E+00  0.000E+00  0.000E+00  0.000E+00  1.04691E+03  6.637E-01  1.482E+01  3.706E-02  1.221E+00
   1    9    6     6     1    1.2474E+01  2.2801E-01   1.2246E+01  0.000E+00  0.000E+00  0.000E+00  1.04353E+03  8.002E-01  1.200E+01  6.000E-02  1.267E+00
   1   10    7     6     2    1.2246E+01  2.2748E-01   1.2019E+01  0.000E+00  0.000E+00  0.000E+00  1.03897E+03  7.913E-01  1.200E+01  6.000E-02  1.264E+00
   1   11    7     6     3    1.2019E+01  2.2694E-01   1.1792E+01  0.000E+00  0.000E+00  0.000E+00  1.03442E+03  7.824E-01  1.200E+01  6.000E-02  1.261E+00
   1   12    7     6     4    1.1792E+01  2.2640E-01   1.1566E+01  0.000E+00  0.000E+00  0.000E+00  1.02986E+03  7.734E-01  1.200E+01  6.000E-02  1.258E+00
   1   13    7     6     5    1.1566E+01 -4.2066E-02   1.1608E+01  0.000E+00  0.000E+00  0.000E+00  1.02668E+03  7.697E-01  1.200E+01  2.400E-01 -5.843E-02
   1   14    9     7     1    1.5000E+02  1.3671E+00   1.4863E+02  0.000E+00  0.000E+00  0.000E+00  1.03987E+03  2.288E+00  5.529E+01  5.593E-01  8.148E-01
   1   13    8     7     2    1.4863E+02  1.9168E+00   1.4672E+02  0.000E+00  0.000E+00  0.000E+00  1.03478E+03  2.279E+00  5.526E+01  6.148E-01  1.039E+00
   1   13    7     7     3    1.4672E+02  1.5830E+00   1.4513E+02  0.000E+00  0.000E+00  0.000E+00  1.02969E+03  2.270E+00  5.521E+01  5.584E-01  9.449E-01
   1   13    6     8     1    1.5674E+02  9.4631E-01   1.5579E+02  0.000E+00  0.000E+00  0.000E+00  1.02474E+03  2.860E+00  4.148E+01  4.227E-01  7.463E-01
   1   13    5     8     2    1.5579E+02  2.0153E-01   1.5559E+02  0.000E+00  0.000E+00  0.000E+00  1.01848E+03  2.856E+00  4.142E+01  4.221E-01  1.592E-01
   1   13    4     8     3    1.5559E+02 -2.4717E+00   1.5806E+02  0.000E+00  0.000E+00  0.000E+00  1.01224E+03  2.864E+00  4.153E+01  4.232E+00 -1.947E-01
   1   13    3     8     4    1.5806E+02 -3.7486E+00   1.6181E+02  0.000E+00  0.000E+00  0.000E+00  1.00601E+03  2.885E+00  4.184E+01  4.264E+00 -2.931E-01
   1   13    2     8     5    1.6181E+02 -2.7680E+00   1.6458E+02  0.000E+00  0.000E+00  0.000E+00  9.99782E+02  2.907E+00  4.216E+01  4.296E+00 -2.148E-01
   1   13    1     8     6    1.6458E+02 -2.1094E+00   1.6669E+02  0.000E+00  0.000E+00  0.000E+00  9.94799E+02  2.924E+00  4.239E+01  2.592E+00 -2.713E-01
   1    8    6     9     1    3.7200E+00  0.0000E+00   3.7200E+00  0.000E+00  0.000E+00  0.000E+00  1.08000E+03  1.252E+00  4.000E+00  0.000E+00  1.417E+00
   1    8    5     9     2    3.7200E+00  0.0000E+00   3.7200E+00  0.000E+00  0.000E+00  0.000E+00  1.07950E+03  1.252E+00  4.000E+00  0.000E+00  1.417E+00



 UBDSV3 SAVING "           GW ET" ON UNIT  61 AT TIME STEP 8, STRESS PERIOD 5
 UBDSV3 SAVING "    UZF RECHARGE" ON UNIT  61 AT TIME STEP 8, STRESS PERIOD 5
 UBDSV3 SAVING " SURFACE LEAKAGE" ON UNIT  61 AT TIME STEP 8, STRESS PERIOD 5
 UBDSV3 SAVING "       HORT+DUNN" ON UNIT  61 AT TIME STEP 8, STRESS PERIOD 5
 UBDSV3 SAVING "  STORAGE CHANGE" ON UNIT  61 AT TIME STEP 8, STRESS PERIOD 5


UNSATURATED ZONE PACKAGE VOLUMETRIC BUDGET FOR  TIME STEP     8 STRESS PERIOD    5
  ------------------------------------------------------------------------------



     CUMULATIVE VOLUMES      L**3       RATES FOR THIS TIME STEP      L**3/T
     ------------------                 ------------------------

           IN:                                      IN:
           ---                                      ---
        INFILTRATION =     9966018.1905          INFILTRATION =           4.5676

          OUT:                                     OUT:
          ----                                     ----
              UZF ET =     9808854.9558                UZF ET =           4.5675
        UZF RECHARGE =       73224.0000          UZF RECHARGE =       0.0000E+00

            IN - OUT =       83939.2347              IN - OUT =       7.0095E-05

          STORAGE:                                 STORAGE:
          --------                                 --------
      STORAGE CHANGE =       83938.6038        STORAGE CHANGE =       7.0111E-05

 PERCENT DISCREPANCY IS DIFFERENCE BETWEEN IN-OUT MINUS CHANGE IN STORAGE
 DIVIDED BY THE AVERAGE OF IN AND OUT TIMES 100

 PERCENT DISCREPANCY =           0.00     PERCENT DISCREPANCY =           0.00






 

            AG WELLS      PERIOD    5   STEP   8
 AG WELL      1   LAYER   1   ROW     6   COL     4   RATE     0.00000    
 AG WELL      2   LAYER   1   ROW     6   COL     5   RATE     0.00000    
 AG WELL      3   LAYER   1   ROW     7   COL     4   RATE     0.00000    
 AG WELL      4   LAYER   1   ROW     7   COL     5   RATE     0.00000    
 AG WELL      5   LAYER   1   ROW     8   COL     4   RATE     0.00000    
 AG WELL      6   LAYER   1   ROW     8   COL     5   RATE     0.00000    
 
 

   DIVERSION SEGMENTS     PERIOD    5   STEP   8
 SEGMENT      9   RATE     3.72000    
 
 

        SW IRRIGATION     PERIOD    5   STEP   8
 SEGMENT      9   ROW     6   COL     4   RATE    0.620012    
 SEGMENT      9   ROW     6   COL     5   RATE    0.620012    
 SEGMENT      9   ROW     7   COL     4   RATE    0.620012    
 SEGMENT      9   ROW     7   COL     5   RATE    0.620012    
 SEGMENT      9   ROW     8   COL     4   RATE    0.620012    
 SEGMENT      9   ROW     8   COL     5   RATE    0.620012    
 
 

        GW IRRIGATION     PERIOD    5   STEP   8
 AG WELL      1   ROW     6   COL     4   RATE     0.00000    
 AG WELL      2   ROW     6   COL     5   RATE     0.00000    
 AG WELL      3   ROW     7   COL     4   RATE     0.00000    
 AG WELL      4   ROW     7   COL     5   RATE     0.00000    
 AG WELL      5   ROW     8   COL     4   RATE     0.00000    
 AG WELL      6   ROW     8   COL     5   RATE     0.00000    
 
1
  VOLUMETRIC BUDGET FOR AGRICULTURAL FIELDS AT  END OF TIME STEP    8, STRESS PERIOD   5
  ------------------------------------------------------------------------------

     CUMULATIVE VOLUMES      L**3       RATES FOR THIS TIME STEP      L**3/T
     ------------------                 ------------------------

           IN:                                      IN:
           ---                                      ---
               AG WELLS  =       76629.9531                 AG WELLS  =           0.0000
      DIVERSION SEGMENTS =     2534959.0000        DIVERSION SEGMENTS =           3.7200
       IRRIGATION PONDS  =           0.0000         IRRIGATION PONDS  =           0.0000
           GW IRRIGATION =           0.0000             GW IRRIGATION =           0.0000
           SW IRRIGATION =           0.0000             SW IRRIGATION =           0.0000
        SYSTEM LOSSES GW =           0.0000          SYSTEM LOSSES GW =           0.0000
        SYSTEM LOSSES SW =           0.0000          SYSTEM LOSSES SW =           0.0000

                TOTAL IN =     2611589.0000                  TOTAL IN =           3.7200

          OUT:                                     OUT:
          ----                                     ----
               AG WELLS  =           0.0000                 AG WELLS  =           0.0000
      DIVERSION SEGMENTS =           0.0000        DIVERSION SEGMENTS =           0.0000
       IRRIGATION PONDS  =           0.0000         IRRIGATION PONDS  =           0.0000
           GW IRRIGATION =       76629.9531             GW IRRIGATION =           0.0000
           SW IRRIGATION =     2535009.5000             SW IRRIGATION =           3.7201
        SYSTEM LOSSES GW =           0.0000          SYSTEM LOSSES GW =           0.0000
        SYSTEM LOSSES SW =           0.0000          SYSTEM LOSSES SW =           0.0000

               TOTAL OUT =     2611639.5000                 TOTAL OUT =           3.7201

                IN - OUT =         -50.5000                  IN - OUT =      -7.4387E-05

     PERCENT DISCREPANCY =          -0.00         PERCENT DISCREPANCY =          -0.00



1
  VOLUMETRIC BUDGET FOR ENTIRE MODEL AT END OF TIME STEP    8, STRESS PERIOD   5
  ------------------------------------------------------------------------------

     CUMULATIVE VOLUMES      L**3       RATES FOR THIS TIME STEP      L**3/T
     ------------------                 ------------------------

           IN:                                      IN:
           ---                                      ---
             STORAGE     =     5468973.5000               STORAGE     =           1.3369
       CONSTANT HEAD     =           0.0000         CONSTANT HEAD     =           0.0000
     HEAD DEP BOUNDS     =     2497686.0000       HEAD DEP BOUNDS     =           0.2879
      STREAM LEAKAGE     =   101331536.0000        STREAM LEAKAGE     =          11.2291
        UZF RECHARGE     =       73223.9531          UZF RECHARGE     =           0.0000
               GW ET     =           0.0000                 GW ET     =           0.0000
     SURFACE LEAKAGE     =           0.0000       SURFACE LEAKAGE     =           0.0000
           AG WELLS      =           0.0000             AG WELLS      =           0.0000

                TOTAL IN =   109371416.0000                  TOTAL IN =          12.8538

          OUT:                                     OUT:
          ----                                     ----
             STORAGE     =    18561636.0000               STORAGE     =           1.4249
       CONSTANT HEAD     =           0.0000         CONSTANT HEAD     =           0.0000
     HEAD DEP BOUNDS     =     2500833.5000       HEAD DEP BOUNDS     =           0.2893
      STREAM LEAKAGE     =    88236072.0000        STREAM LEAKAGE     =          11.1396
        UZF RECHARGE     =           0.0000          UZF RECHARGE     =           0.0000
               GW ET     =           0.0000                 GW ET     =           0.0000
     SURFACE LEAKAGE     =           0.0000       SURFACE LEAKAGE     =           0.0000
           AG WELLS      =       76629.9531             AG WELLS      =           0.0000

               TOTAL OUT =   109375176.0000                 TOTAL OUT =          12.8538

                IN - OUT =       -3760.0000                  IN - OUT =       3.4332E-05

     PERCENT DISCREPANCY =          -0.00         PERCENT DISCREPANCY =           0.00






         TIME SUMMARY AT END OF TIME STEP    8 IN STRESS PERIOD    5
                    SECONDS     MINUTES      HOURS       DAYS        YEARS
                    -----------------------------------------------------------
   TIME STEP LENGTH  87667.      1461.1      24.352      1.0147     2.77799E-03
 STRESS PERIOD TIME 7.01333E+05  11689.      194.81      8.1173     2.22239E-02
         TOTAL TIME 8.67773E+06 1.44629E+05  2410.5      100.44     0.27498    
1
 
 SOLVING FOR HEAD 
                                                   Max.-Head-Change                         Max.-Flux-Residual
  Residual-Control   Outer-Iter.   Inner-Iter.     Column Row Layer    Maximum-Head-Change  Column Row Layer    Maximum-Flux-Residual          L2-NORM 
          0                 1           2             2   13     1      -0.2624351014E-02       2   13    1        -0.1473029085E+00      0.3612335992E+00
          0                 2           2             2   13     1       0.2457726659E-03       2   13    1         0.1418025364E-01      0.3564345400E-01
          0                 3           2             4    7     1      -0.1154086396E-01       4    8    1        -0.6198611470E+00      0.1525276847E+01
          0                 4           2             4    7     1       0.1201643374E-01       4    8    1         0.6633956182E+00      0.1624835840E+01
          0                 5           2             4    7     1      -0.4782697482E-03       4    6    1        -0.2718113972E-01      0.6649517131E-01
          0                 6           1             4    7     1       0.5901647473E-05       4    6    1         0.3447243521E-03      0.8433357578E-03

    ------------------------------------------------
       NWT REQUIRED            6 OUTER ITERATIONS 
       AND A TOTAL OF         11 INNER ITERATIONS.
    ------------------------------------------------

 OUTPUT CONTROL FOR STRESS PERIOD    5   TIME STEP    9
    PRINT BUDGET
    SAVE BUDGET
 UBDSV1 SAVING "         STORAGE" ON UNIT 102 AT TIME STEP 9, STRESS PERIOD 5
 UBDSV2 SAVING "   CONSTANT HEAD" ON UNIT 102 AT TIME STEP 9, STRESS PERIOD 5
 UBDSV1 SAVING "FLOW RIGHT FACE " ON UNIT 102 AT TIME STEP 9, STRESS PERIOD 5
 UBDSV1 SAVING "FLOW FRONT FACE " ON UNIT 102 AT TIME STEP 9, STRESS PERIOD 5

  HEAD DEP BOUNDS   PERIOD    5   STEP     9
 BOUNDARY      1   LAYER   1   ROW    13   COL     1   RATE   -0.289176    
 BOUNDARY      2   LAYER   1   ROW    14   COL     9   RATE    0.287889    



 STREAM LISTING     PERIOD      5   STEP        9

 LAYER ROW COL. STREAM  RCH.  FLOW INTO     FLOW TO   FLOW OUT OF   OVRLND.     DIRECT     STREAM       STREAM     STREAM     STREAM   STREAMBED  STREAMBED
                SEG.NO.  NO.  STRM. RCH.    AQUIFER    STRM. RCH.    RUNOFF     PRECIP       ET          HEAD       DEPTH      WIDTH   CONDCTNC.   GRADIENT

   1    1    1     1     1    1.0500E+01  1.5271E-01   1.0347E+01  0.000E+00  0.000E+00  0.000E+00  1.09396E+03  9.109E-01  8.677E+00  3.905E-02  1.304E+00
   1    2    2     1     2    1.0347E+01  2.3505E-01   1.0112E+01  0.000E+00  0.000E+00  0.000E+00  1.08896E+03  9.059E-01  8.597E+00  6.018E-02  1.302E+00
   1    3    3     1     3    1.0112E+01  1.9904E-01   9.9132E+00  0.000E+00  0.000E+00  0.000E+00  1.08332E+03  9.003E-01  8.505E+00  5.103E-02  1.300E+00
   1    3    4     1     4    9.9132E+00  1.8195E-01   9.7313E+00  0.000E+00  0.000E+00  0.000E+00  1.07830E+03  8.947E-01  8.417E+00  4.672E-02  1.298E+00
   1    4    5     2     1    7.7313E+00  2.8007E-01   7.4512E+00  0.000E+00  0.000E+00  0.000E+00  1.07252E+03  5.907E-01  1.200E+01  7.800E-02  1.197E+00
   1    5    6     2     2    7.4512E+00  2.1474E-01   7.2365E+00  0.000E+00  0.000E+00  0.000E+00  1.06709E+03  5.790E-01  1.200E+01  6.000E-02  1.193E+00
   1    6    6     2     3    7.2365E+00  2.1413E-01   7.0224E+00  0.000E+00  0.000E+00  0.000E+00  1.06236E+03  5.688E-01  1.200E+01  6.000E-02  1.190E+00
   1    7    6     2     4    7.0224E+00  2.1351E-01   6.8088E+00  0.000E+00  0.000E+00  0.000E+00  1.05763E+03  5.585E-01  1.200E+01  6.000E-02  1.186E+00
   1    8    6     2     5    6.8088E+00  2.1289E-01   6.5960E+00  0.000E+00  0.000E+00  0.000E+00  1.05291E+03  5.481E-01  1.200E+01  6.000E-02  1.183E+00
   1    3    5     3     1    2.0000E+00  2.8252E-01   1.7175E+00  0.000E+00  0.000E+00  0.000E+00  1.07555E+03  1.909E+00  9.636E+00  7.227E-02  1.955E+00
   1    3    6     3     2    1.7175E+00  2.4905E-01   1.4684E+00  0.000E+00  0.000E+00  0.000E+00  1.07264E+03  1.727E+00  8.909E+00  6.682E-02  1.864E+00
   1    3    7     3     3    1.4684E+00  1.9718E-01   1.2712E+00  0.000E+00  0.000E+00  0.000E+00  1.06987E+03  1.555E+00  8.218E+00  5.547E-02  1.777E+00
   1    4    8     3     4    1.2712E+00  2.2567E-01   1.0456E+00  0.000E+00  0.000E+00  0.000E+00  1.06682E+03  1.364E+00  7.455E+00  6.709E-02  1.682E+00
   1    5    8     3     5    1.0456E+00  1.5790E-01   8.8768E-01  0.000E+00  0.000E+00  0.000E+00  1.06362E+03  1.164E+00  6.655E+00  4.991E-02  1.582E+00
   1    6    8     3     6    8.8768E-01  5.5980E-02   8.3170E-01  0.000E+00  0.000E+00  0.000E+00  1.06158E+03  1.036E+00  6.145E+00  1.844E-02  1.518E+00
   1    5   10     4     1    1.0000E+01  9.0919E-02   9.9091E+00  0.000E+00  0.000E+00  0.000E+00  1.07836E+03  6.368E-01  1.000E+01  2.500E-02  1.212E+00
   1    5    9     4     2    9.9091E+00  1.8158E-01   9.7275E+00  0.000E+00  0.000E+00  0.000E+00  1.07154E+03  6.315E-01  1.000E+01  5.000E-02  1.211E+00
   1    6    8     4     3    9.7275E+00  1.2689E-01   9.6006E+00  0.000E+00  0.000E+00  0.000E+00  1.06381E+03  6.256E-01  1.000E+01  3.500E-02  1.209E+00
   1    6    8     5     1    1.0432E+01  2.2686E-01   1.0205E+01  0.000E+00  0.000E+00  0.000E+00  1.05868E+03  6.790E-01  1.542E+01  6.166E-02  1.226E+00
   1    7    7     5     2    1.0205E+01  2.7894E-01   9.9265E+00  0.000E+00  0.000E+00  0.000E+00  1.05417E+03  6.732E-01  1.519E+01  7.594E-02  1.224E+00
   1    8    7     5     3    9.9265E+00  1.9221E-01   9.7343E+00  0.000E+00  0.000E+00  0.000E+00  1.04992E+03  6.676E-01  1.497E+01  5.241E-02  1.223E+00
   1    8    6     5     4    9.7343E+00  1.3577E-01   9.5985E+00  0.000E+00  0.000E+00  0.000E+00  1.04691E+03  6.637E-01  1.482E+01  3.706E-02  1.221E+00
   1    9    6     6     1    1.2474E+01  2.2801E-01   1.2246E+01  0.000E+00  0.000E+00  0.000E+00  1.04353E+03  8.002E-01  1.200E+01  6.000E-02  1.267E+00
   1   10    7     6     2    1.2246E+01  2.2748E-01   1.2019E+01  0.000E+00  0.000E+00  0.000E+00  1.03897E+03  7.913E-01  1.200E+01  6.000E-02  1.264E+00
   1   11    7     6     3    1.2019E+01  2.2694E-01   1.1792E+01  0.000E+00  0.000E+00  0.000E+00  1.03442E+03  7.824E-01  1.200E+01  6.000E-02  1.261E+00
   1   12    7     6     4    1.1792E+01  2.2640E-01   1.1566E+01  0.000E+00  0.000E+00  0.000E+00  1.02986E+03  7.734E-01  1.200E+01  6.000E-02  1.258E+00
   1   13    7     6     5    1.1566E+01 -4.1964E-02   1.1608E+01  0.000E+00  0.000E+00  0.000E+00  1.02668E+03  7.697E-01  1.200E+01  2.400E-01 -5.828E-02
   1   14    9     7     1    1.5000E+02  1.3671E+00   1.4863E+02  0.000E+00  0.000E+00  0.000E+00  1.03987E+03  2.288E+00  5.529E+01  5.593E-01  8.148E-01
   1   13    8     7     2    1.4863E+02  1.9168E+00   1.4672E+02  0.000E+00  0.000E+00  0.000E+00  1.03478E+03  2.279E+00  5.526E+01  6.148E-01  1.039E+00
   1   13    7     7     3    1.4672E+02  1.5832E+00   1.4513E+02  0.000E+00  0.000E+00  0.000E+00  1.02969E+03  2.270E+00  5.521E+01  5.584E-01  9.451E-01
   1   13    6     8     1    1.5674E+02  9.4665E-01   1.5579E+02  0.000E+00  0.000E+00  0.000E+00  1.02474E+03  2.860E+00  4.148E+01  4.227E-01  7.466E-01
   1   13    5     8     2    1.5579E+02  2.0185E-01   1.5559E+02  0.000E+00  0.000E+00  0.000E+00  1.01848E+03  2.856E+00  4.142E+01  4.221E-01  1.594E-01
   1   13    4     8     3    1.5559E+02 -2.4579E+00   1.5805E+02  0.000E+00  0.000E+00  0.000E+00  1.01224E+03  2.864E+00  4.153E+01  4.232E+00 -1.936E-01
   1   13    3     8     4    1.5805E+02 -3.7352E+00   1.6179E+02  0.000E+00  0.000E+00  0.000E+00  1.00601E+03  2.885E+00  4.184E+01  4.263E+00 -2.920E-01
   1   13    2     8     5    1.6179E+02 -2.7531E+00   1.6454E+02  0.000E+00  0.000E+00  0.000E+00  9.99782E+02  2.907E+00  4.215E+01  4.296E+00 -2.136E-01
   1   13    1     8     6    1.6454E+02 -2.1035E+00   1.6664E+02  0.000E+00  0.000E+00  0.000E+00  9.94798E+02  2.923E+00  4.239E+01  2.592E+00 -2.706E-01
   1    8    6     9     1    3.7200E+00  0.0000E+00   3.7200E+00  0.000E+00  0.000E+00  0.000E+00  1.08000E+03  1.252E+00  4.000E+00  0.000E+00  1.417E+00
   1    8    5     9     2    3.7200E+00  0.0000E+00   3.7200E+00  0.000E+00  0.000E+00  0.000E+00  1.07950E+03  1.252E+00  4.000E+00  0.000E+00  1.417E+00



 UBDSV3 SAVING "           GW ET" ON UNIT  61 AT TIME STEP 9, STRESS PERIOD 5
 UBDSV3 SAVING "    UZF RECHARGE" ON UNIT  61 AT TIME STEP 9, STRESS PERIOD 5
 UBDSV3 SAVING " SURFACE LEAKAGE" ON UNIT  61 AT TIME STEP 9, STRESS PERIOD 5
 UBDSV3 SAVING "       HORT+DUNN" ON UNIT  61 AT TIME STEP 9, STRESS PERIOD 5
 UBDSV3 SAVING "  STORAGE CHANGE" ON UNIT  61 AT TIME STEP 9, STRESS PERIOD 5


UNSATURATED ZONE PACKAGE VOLUMETRIC BUDGET FOR  TIME STEP     9 STRESS PERIOD    5
  ------------------------------------------------------------------------------



     CUMULATIVE VOLUMES      L**3       RATES FOR THIS TIME STEP      L**3/T
     ------------------                 ------------------------

           IN:                                      IN:
           ---                                      ---
        INFILTRATION =    10366441.6473          INFILTRATION =           4.5676

          OUT:                                     OUT:
          ----                                     ----
              UZF ET =    10209272.4556                UZF ET =           4.5675
        UZF RECHARGE =       73224.0000          UZF RECHARGE =       0.0000E+00

            IN - OUT =       83945.1917              IN - OUT =       6.7651E-05

          STORAGE:                                 STORAGE:
          --------                                 --------
      STORAGE CHANGE =       83944.5566        STORAGE CHANGE =       6.7902E-05

 PERCENT DISCREPANCY IS DIFFERENCE BETWEEN IN-OUT MINUS CHANGE IN STORAGE
 DIVIDED BY THE AVERAGE OF IN AND OUT TIMES 100

 PERCENT DISCREPANCY =           0.00     PERCENT DISCREPANCY =          -0.00






 

            AG WELLS      PERIOD    5   STEP   9
 AG WELL      1   LAYER   1   ROW     6   COL     4   RATE     0.00000    
 AG WELL      2   LAYER   1   ROW     6   COL     5   RATE     0.00000    
 AG WELL      3   LAYER   1   ROW     7   COL     4   RATE     0.00000    
 AG WELL      4   LAYER   1   ROW     7   COL     5   RATE     0.00000    
 AG WELL      5   LAYER   1   ROW     8   COL     4   RATE     0.00000    
 AG WELL      6   LAYER   1   ROW     8   COL     5   RATE     0.00000    
 
 

   DIVERSION SEGMENTS     PERIOD    5   STEP   9
 SEGMENT      9   RATE     3.71999    
 
 

        SW IRRIGATION     PERIOD    5   STEP   9
 SEGMENT      9   ROW     6   COL     4   RATE    0.620011    
 SEGMENT      9   ROW     6   COL     5   RATE    0.620011    
 SEGMENT      9   ROW     7   COL     4   RATE    0.620011    
 SEGMENT      9   ROW     7   COL     5   RATE    0.620011    
 SEGMENT      9   ROW     8   COL     4   RATE    0.620011    
 SEGMENT      9   ROW     8   COL     5   RATE    0.620011    
 
 

        GW IRRIGATION     PERIOD    5   STEP   9
 AG WELL      1   ROW     6   COL     4   RATE     0.00000    
 AG WELL      2   ROW     6   COL     5   RATE     0.00000    
 AG WELL      3   ROW     7   COL     4   RATE     0.00000    
 AG WELL      4   ROW     7   COL     5   RATE     0.00000    
 AG WELL      5   ROW     8   COL     4   RATE     0.00000    
 AG WELL      6   ROW     8   COL     5   RATE     0.00000    
 
1
  VOLUMETRIC BUDGET FOR AGRICULTURAL FIELDS AT  END OF TIME STEP    9, STRESS PERIOD   5
  ------------------------------------------------------------------------------

     CUMULATIVE VOLUMES      L**3       RATES FOR THIS TIME STEP      L**3/T
     ------------------                 ------------------------

           IN:                                      IN:
           ---                                      ---
               AG WELLS  =       76629.9531                 AG WELLS  =           0.0000
      DIVERSION SEGMENTS =     2861078.5000        DIVERSION SEGMENTS =           3.7200
       IRRIGATION PONDS  =           0.0000         IRRIGATION PONDS  =           0.0000
           GW IRRIGATION =           0.0000             GW IRRIGATION =           0.0000
           SW IRRIGATION =           0.0000             SW IRRIGATION =           0.0000
        SYSTEM LOSSES GW =           0.0000          SYSTEM LOSSES GW =           0.0000
        SYSTEM LOSSES SW =           0.0000          SYSTEM LOSSES SW =           0.0000

                TOTAL IN =     2937708.5000                  TOTAL IN =           3.7200

          OUT:                                     OUT:
          ----                                     ----
               AG WELLS  =           0.0000                 AG WELLS  =           0.0000
      DIVERSION SEGMENTS =           0.0000        DIVERSION SEGMENTS =           0.0000
       IRRIGATION PONDS  =           0.0000         IRRIGATION PONDS  =           0.0000
           GW IRRIGATION =       76629.9531             GW IRRIGATION =           0.0000
           SW IRRIGATION =     2861135.5000             SW IRRIGATION =           3.7201
        SYSTEM LOSSES GW =           0.0000          SYSTEM LOSSES GW =           0.0000
        SYSTEM LOSSES SW =           0.0000          SYSTEM LOSSES SW =           0.0000

               TOTAL OUT =     2937765.5000                 TOTAL OUT =           3.7201

                IN - OUT =         -57.0000                  IN - OUT =      -7.4387E-05

     PERCENT DISCREPANCY =          -0.00         PERCENT DISCREPANCY =          -0.00



1
  VOLUMETRIC BUDGET FOR ENTIRE MODEL AT END OF TIME STEP    9, STRESS PERIOD   5
  ------------------------------------------------------------------------------

     CUMULATIVE VOLUMES      L**3       RATES FOR THIS TIME STEP      L**3/T
     ------------------                 ------------------------

           IN:                                      IN:
           ---                                      ---
             STORAGE     =     5581232.5000               STORAGE     =           1.2805
       CONSTANT HEAD     =           0.0000         CONSTANT HEAD     =           0.0000
     HEAD DEP BOUNDS     =     2522924.2500       HEAD DEP BOUNDS     =           0.2879
      STREAM LEAKAGE     =   102316032.0000        STREAM LEAKAGE     =          11.2300
        UZF RECHARGE     =       73223.9531          UZF RECHARGE     =           0.0000
               GW ET     =           0.0000                 GW ET     =           0.0000
     SURFACE LEAKAGE     =           0.0000       SURFACE LEAKAGE     =           0.0000
           AG WELLS      =           0.0000             AG WELLS      =           0.0000

                TOTAL IN =   110493416.0000                  TOTAL IN =          12.7984

          OUT:                                     OUT:
          ----                                     ----
             STORAGE     =    18685902.0000               STORAGE     =           1.4175
       CONSTANT HEAD     =           0.0000         CONSTANT HEAD     =           0.0000
     HEAD DEP BOUNDS     =     2526184.7500       HEAD DEP BOUNDS     =           0.2892
      STREAM LEAKAGE     =    89208440.0000        STREAM LEAKAGE     =          11.0917
        UZF RECHARGE     =           0.0000          UZF RECHARGE     =           0.0000
               GW ET     =           0.0000                 GW ET     =           0.0000
     SURFACE LEAKAGE     =           0.0000       SURFACE LEAKAGE     =           0.0000
           AG WELLS      =       76629.9531             AG WELLS      =           0.0000

               TOTAL OUT =   110497160.0000                 TOTAL OUT =          12.7984

                IN - OUT =       -3744.0000                  IN - OUT =       3.4332E-05

     PERCENT DISCREPANCY =          -0.00         PERCENT DISCREPANCY =           0.00






         TIME SUMMARY AT END OF TIME STEP    9 IN STRESS PERIOD    5
                    SECONDS     MINUTES      HOURS       DAYS        YEARS
                    -----------------------------------------------------------
   TIME STEP LENGTH  87667.      1461.1      24.352      1.0147     2.77799E-03
 STRESS PERIOD TIME 7.89000E+05  13150.      219.17      9.1319     2.50019E-02
         TOTAL TIME 8.76540E+06 1.46090E+05  2434.8      101.45     0.27776    
1
 
 SOLVING FOR HEAD 
                                                   Max.-Head-Change                         Max.-Flux-Residual
  Residual-Control   Outer-Iter.   Inner-Iter.     Column Row Layer    Maximum-Head-Change  Column Row Layer    Maximum-Flux-Residual          L2-NORM 
          0                 1           2             2   13     1      -0.2336053464E-02       2   13    1        -0.1310935190E+00      0.3408534223E+00
          0                 2           2             2   13     1       0.2189205568E-03       2   13    1         0.1262825591E-01      0.3368272499E-01
          0                 3           2             4    7     1      -0.1154084117E-01       4    8    1        -0.6198606208E+00      0.1525277782E+01
          0                 4           2             4    7     1       0.1201643404E-01       4    8    1         0.6633954024E+00      0.1624844254E+01
          0                 5           2             4    7     1      -0.4782782674E-03       4    6    1        -0.2720342630E-01      0.6650470194E-01
          0                 6           1             4    7     1       0.5905159170E-05       4    6    1         0.3452056835E-03      0.8439429985E-03

    ------------------------------------------------
       NWT REQUIRED            6 OUTER ITERATIONS 
       AND A TOTAL OF         11 INNER ITERATIONS.
    ------------------------------------------------

 OUTPUT CONTROL FOR STRESS PERIOD    5   TIME STEP   10
    PRINT BUDGET
    SAVE BUDGET
 UBDSV1 SAVING "         STORAGE" ON UNIT 102 AT TIME STEP 10, STRESS PERIOD 5
 UBDSV2 SAVING "   CONSTANT HEAD" ON UNIT 102 AT TIME STEP 10, STRESS PERIOD 5
 UBDSV1 SAVING "FLOW RIGHT FACE " ON UNIT 102 AT TIME STEP 10, STRESS PERIOD 5
 UBDSV1 SAVING "FLOW FRONT FACE " ON UNIT 102 AT TIME STEP 10, STRESS PERIOD 5

  HEAD DEP BOUNDS   PERIOD    5   STEP    10
 BOUNDARY      1   LAYER   1   ROW    13   COL     1   RATE   -0.289086    
 BOUNDARY      2   LAYER   1   ROW    14   COL     9   RATE    0.287890    



 STREAM LISTING     PERIOD      5   STEP       10

 LAYER ROW COL. STREAM  RCH.  FLOW INTO     FLOW TO   FLOW OUT OF   OVRLND.     DIRECT     STREAM       STREAM     STREAM     STREAM   STREAMBED  STREAMBED
                SEG.NO.  NO.  STRM. RCH.    AQUIFER    STRM. RCH.    RUNOFF     PRECIP       ET          HEAD       DEPTH      WIDTH   CONDCTNC.   GRADIENT

   1    1    1     1     1    1.0500E+01  1.5271E-01   1.0347E+01  0.000E+00  0.000E+00  0.000E+00  1.09396E+03  9.109E-01  8.677E+00  3.905E-02  1.304E+00
   1    2    2     1     2    1.0347E+01  2.3505E-01   1.0112E+01  0.000E+00  0.000E+00  0.000E+00  1.08896E+03  9.059E-01  8.597E+00  6.018E-02  1.302E+00
   1    3    3     1     3    1.0112E+01  1.9904E-01   9.9132E+00  0.000E+00  0.000E+00  0.000E+00  1.08332E+03  9.003E-01  8.505E+00  5.103E-02  1.300E+00
   1    3    4     1     4    9.9132E+00  1.8195E-01   9.7313E+00  0.000E+00  0.000E+00  0.000E+00  1.07830E+03  8.947E-01  8.417E+00  4.672E-02  1.298E+00
   1    4    5     2     1    7.7313E+00  2.8007E-01   7.4512E+00  0.000E+00  0.000E+00  0.000E+00  1.07252E+03  5.907E-01  1.200E+01  7.800E-02  1.197E+00
   1    5    6     2     2    7.4512E+00  2.1474E-01   7.2365E+00  0.000E+00  0.000E+00  0.000E+00  1.06709E+03  5.790E-01  1.200E+01  6.000E-02  1.193E+00
   1    6    6     2     3    7.2365E+00  2.1413E-01   7.0224E+00  0.000E+00  0.000E+00  0.000E+00  1.06236E+03  5.688E-01  1.200E+01  6.000E-02  1.190E+00
   1    7    6     2     4    7.0224E+00  2.1351E-01   6.8088E+00  0.000E+00  0.000E+00  0.000E+00  1.05763E+03  5.585E-01  1.200E+01  6.000E-02  1.186E+00
   1    8    6     2     5    6.8088E+00  2.1289E-01   6.5960E+00  0.000E+00  0.000E+00  0.000E+00  1.05291E+03  5.481E-01  1.200E+01  6.000E-02  1.183E+00
   1    3    5     3     1    2.0000E+00  2.8252E-01   1.7175E+00  0.000E+00  0.000E+00  0.000E+00  1.07555E+03  1.909E+00  9.636E+00  7.227E-02  1.955E+00
   1    3    6     3     2    1.7175E+00  2.4905E-01   1.4684E+00  0.000E+00  0.000E+00  0.000E+00  1.07264E+03  1.727E+00  8.909E+00  6.682E-02  1.864E+00
   1    3    7     3     3    1.4684E+00  1.9718E-01   1.2712E+00  0.000E+00  0.000E+00  0.000E+00  1.06987E+03  1.555E+00  8.218E+00  5.547E-02  1.777E+00
   1    4    8     3     4    1.2712E+00  2.2567E-01   1.0456E+00  0.000E+00  0.000E+00  0.000E+00  1.06682E+03  1.364E+00  7.455E+00  6.709E-02  1.682E+00
   1    5    8     3     5    1.0456E+00  1.5790E-01   8.8768E-01  0.000E+00  0.000E+00  0.000E+00  1.06362E+03  1.164E+00  6.655E+00  4.991E-02  1.582E+00
   1    6    8     3     6    8.8768E-01  5.5980E-02   8.3170E-01  0.000E+00  0.000E+00  0.000E+00  1.06158E+03  1.036E+00  6.145E+00  1.844E-02  1.518E+00
   1    5   10     4     1    1.0000E+01  9.0919E-02   9.9091E+00  0.000E+00  0.000E+00  0.000E+00  1.07836E+03  6.368E-01  1.000E+01  2.500E-02  1.212E+00
   1    5    9     4     2    9.9091E+00  1.8158E-01   9.7275E+00  0.000E+00  0.000E+00  0.000E+00  1.07154E+03  6.315E-01  1.000E+01  5.000E-02  1.211E+00
   1    6    8     4     3    9.7275E+00  1.2689E-01   9.6006E+00  0.000E+00  0.000E+00  0.000E+00  1.06381E+03  6.256E-01  1.000E+01  3.500E-02  1.209E+00
   1    6    8     5     1    1.0432E+01  2.2686E-01   1.0205E+01  0.000E+00  0.000E+00  0.000E+00  1.05868E+03  6.790E-01  1.542E+01  6.166E-02  1.226E+00
   1    7    7     5     2    1.0205E+01  2.7894E-01   9.9265E+00  0.000E+00  0.000E+00  0.000E+00  1.05417E+03  6.732E-01  1.519E+01  7.594E-02  1.224E+00
   1    8    7     5     3    9.9265E+00  1.9221E-01   9.7343E+00  0.000E+00  0.000E+00  0.000E+00  1.04992E+03  6.676E-01  1.497E+01  5.241E-02  1.223E+00
   1    8    6     5     4    9.7343E+00  1.3577E-01   9.5985E+00  0.000E+00  0.000E+00  0.000E+00  1.04691E+03  6.637E-01  1.482E+01  3.706E-02  1.221E+00
   1    9    6     6     1    1.2474E+01  2.2801E-01   1.2246E+01  0.000E+00  0.000E+00  0.000E+00  1.04353E+03  8.002E-01  1.200E+01  6.000E-02  1.267E+00
   1   10    7     6     2    1.2246E+01  2.2748E-01   1.2019E+01  0.000E+00  0.000E+00  0.000E+00  1.03897E+03  7.913E-01  1.200E+01  6.000E-02  1.264E+00
   1   11    7     6     3    1.2019E+01  2.2694E-01   1.1792E+01  0.000E+00  0.000E+00  0.000E+00  1.03442E+03  7.824E-01  1.200E+01  6.000E-02  1.261E+00
   1   12    7     6     4    1.1792E+01  2.2640E-01   1.1566E+01  0.000E+00  0.000E+00  0.000E+00  1.02986E+03  7.734E-01  1.200E+01  6.000E-02  1.258E+00
   1   13    7     6     5    1.1566E+01 -4.1863E-02   1.1608E+01  0.000E+00  0.000E+00  0.000E+00  1.02668E+03  7.697E-01  1.200E+01  2.400E-01 -5.814E-02
   1   14    9     7     1    1.5000E+02  1.3671E+00   1.4863E+02  0.000E+00  0.000E+00  0.000E+00  1.03987E+03  2.288E+00  5.529E+01  5.593E-01  8.148E-01
   1   13    8     7     2    1.4863E+02  1.9167E+00   1.4672E+02  0.000E+00  0.000E+00  0.000E+00  1.03478E+03  2.279E+00  5.526E+01  6.148E-01  1.039E+00
   1   13    7     7     3    1.4672E+02  1.5834E+00   1.4513E+02  0.000E+00  0.000E+00  0.000E+00  1.02969E+03  2.270E+00  5.521E+01  5.584E-01  9.452E-01
   1   13    6     8     1    1.5674E+02  9.4699E-01   1.5579E+02  0.000E+00  0.000E+00  0.000E+00  1.02474E+03  2.860E+00  4.148E+01  4.227E-01  7.469E-01
   1   13    5     8     2    1.5579E+02  2.0218E-01   1.5559E+02  0.000E+00  0.000E+00  0.000E+00  1.01848E+03  2.856E+00  4.142E+01  4.221E-01  1.597E-01
   1   13    4     8     3    1.5559E+02 -2.4453E+00   1.5804E+02  0.000E+00  0.000E+00  0.000E+00  1.01224E+03  2.864E+00  4.153E+01  4.232E+00 -1.926E-01
   1   13    3     8     4    1.5804E+02 -3.7229E+00   1.6176E+02  0.000E+00  0.000E+00  0.000E+00  1.00601E+03  2.885E+00  4.183E+01  4.263E+00 -2.911E-01
   1   13    2     8     5    1.6176E+02 -2.7393E+00   1.6450E+02  0.000E+00  0.000E+00  0.000E+00  9.99782E+02  2.907E+00  4.215E+01  4.295E+00 -2.126E-01
   1   13    1     8     6    1.6450E+02 -2.0979E+00   1.6660E+02  0.000E+00  0.000E+00  0.000E+00  9.94798E+02  2.923E+00  4.238E+01  2.591E+00 -2.699E-01
   1    8    6     9     1    3.7200E+00  0.0000E+00   3.7200E+00  0.000E+00  0.000E+00  0.000E+00  1.08000E+03  1.252E+00  4.000E+00  0.000E+00  1.417E+00
   1    8    5     9     2    3.7200E+00  0.0000E+00   3.7200E+00  0.000E+00  0.000E+00  0.000E+00  1.07950E+03  1.252E+00  4.000E+00  0.000E+00  1.417E+00



 UBDSV3 SAVING "           GW ET" ON UNIT  61 AT TIME STEP 10, STRESS PERIOD 5
 UBDSV3 SAVING "    UZF RECHARGE" ON UNIT  61 AT TIME STEP 10, STRESS PERIOD 5
 UBDSV3 SAVING " SURFACE LEAKAGE" ON UNIT  61 AT TIME STEP 10, STRESS PERIOD 5
 UBDSV3 SAVING "       HORT+DUNN" ON UNIT  61 AT TIME STEP 10, STRESS PERIOD 5
 UBDSV3 SAVING "  STORAGE CHANGE" ON UNIT  61 AT TIME STEP 10, STRESS PERIOD 5


UNSATURATED ZONE PACKAGE VOLUMETRIC BUDGET FOR  TIME STEP    10 STRESS PERIOD    5
  ------------------------------------------------------------------------------



     CUMULATIVE VOLUMES      L**3       RATES FOR THIS TIME STEP      L**3/T
     ------------------                 ------------------------

           IN:                                      IN:
           ---                                      ---
        INFILTRATION =    10766865.1041          INFILTRATION =           4.5676

          OUT:                                     OUT:
          ----                                     ----
              UZF ET =    10609689.9359                UZF ET =           4.5675
        UZF RECHARGE =       73224.0000          UZF RECHARGE =       0.0000E+00

            IN - OUT =       83951.1683              IN - OUT =       6.7949E-05

          STORAGE:                                 STORAGE:
          --------                                 --------
      STORAGE CHANGE =       83950.5201        STORAGE CHANGE =       6.8026E-05

 PERCENT DISCREPANCY IS DIFFERENCE BETWEEN IN-OUT MINUS CHANGE IN STORAGE
 DIVIDED BY THE AVERAGE OF IN AND OUT TIMES 100

 PERCENT DISCREPANCY =           0.00     PERCENT DISCREPANCY =           0.00






 

            AG WELLS      PERIOD    5   STEP  10
 AG WELL      1   LAYER   1   ROW     6   COL     4   RATE     0.00000    
 AG WELL      2   LAYER   1   ROW     6   COL     5   RATE     0.00000    
 AG WELL      3   LAYER   1   ROW     7   COL     4   RATE     0.00000    
 AG WELL      4   LAYER   1   ROW     7   COL     5   RATE     0.00000    
 AG WELL      5   LAYER   1   ROW     8   COL     4   RATE     0.00000    
 AG WELL      6   LAYER   1   ROW     8   COL     5   RATE     0.00000    
 
 

   DIVERSION SEGMENTS     PERIOD    5   STEP  10
 SEGMENT      9   RATE     3.71999    
 
 

        SW IRRIGATION     PERIOD    5   STEP  10
 SEGMENT      9   ROW     6   COL     4   RATE    0.620011    
 SEGMENT      9   ROW     6   COL     5   RATE    0.620011    
 SEGMENT      9   ROW     7   COL     4   RATE    0.620011    
 SEGMENT      9   ROW     7   COL     5   RATE    0.620011    
 SEGMENT      9   ROW     8   COL     4   RATE    0.620011    
 SEGMENT      9   ROW     8   COL     5   RATE    0.620011    
 
 

        GW IRRIGATION     PERIOD    5   STEP  10
 AG WELL      1   ROW     6   COL     4   RATE     0.00000    
 AG WELL      2   ROW     6   COL     5   RATE     0.00000    
 AG WELL      3   ROW     7   COL     4   RATE     0.00000    
 AG WELL      4   ROW     7   COL     5   RATE     0.00000    
 AG WELL      5   ROW     8   COL     4   RATE     0.00000    
 AG WELL      6   ROW     8   COL     5   RATE     0.00000    
 
1
  VOLUMETRIC BUDGET FOR AGRICULTURAL FIELDS AT  END OF TIME STEP   10, STRESS PERIOD   5
  ------------------------------------------------------------------------------

     CUMULATIVE VOLUMES      L**3       RATES FOR THIS TIME STEP      L**3/T
     ------------------                 ------------------------

           IN:                                      IN:
           ---                                      ---
               AG WELLS  =       76629.9531                 AG WELLS  =           0.0000
      DIVERSION SEGMENTS =     3187198.0000        DIVERSION SEGMENTS =           3.7200
       IRRIGATION PONDS  =           0.0000         IRRIGATION PONDS  =           0.0000
           GW IRRIGATION =           0.0000             GW IRRIGATION =           0.0000
           SW IRRIGATION =           0.0000             SW IRRIGATION =           0.0000
        SYSTEM LOSSES GW =           0.0000          SYSTEM LOSSES GW =           0.0000
        SYSTEM LOSSES SW =           0.0000          SYSTEM LOSSES SW =           0.0000

                TOTAL IN =     3263828.0000                  TOTAL IN =           3.7200

          OUT:                                     OUT:
          ----                                     ----
               AG WELLS  =           0.0000                 AG WELLS  =           0.0000
      DIVERSION SEGMENTS =           0.0000        DIVERSION SEGMENTS =           0.0000
       IRRIGATION PONDS  =           0.0000         IRRIGATION PONDS  =           0.0000
           GW IRRIGATION =       76629.9531             GW IRRIGATION =           0.0000
           SW IRRIGATION =     3187261.5000             SW IRRIGATION =           3.7201
        SYSTEM LOSSES GW =           0.0000          SYSTEM LOSSES GW =           0.0000
        SYSTEM LOSSES SW =           0.0000          SYSTEM LOSSES SW =           0.0000

               TOTAL OUT =     3263891.5000                 TOTAL OUT =           3.7201

                IN - OUT =         -63.5000                  IN - OUT =      -7.4148E-05

     PERCENT DISCREPANCY =          -0.00         PERCENT DISCREPANCY =          -0.00



1
  VOLUMETRIC BUDGET FOR ENTIRE MODEL AT END OF TIME STEP   10, STRESS PERIOD   5
  ------------------------------------------------------------------------------

     CUMULATIVE VOLUMES      L**3       RATES FOR THIS TIME STEP      L**3/T
     ------------------                 ------------------------

           IN:                                      IN:
           ---                                      ---
             STORAGE     =     5688887.0000               STORAGE     =           1.2280
       CONSTANT HEAD     =           0.0000         CONSTANT HEAD     =           0.0000
     HEAD DEP BOUNDS     =     2548162.5000       HEAD DEP BOUNDS     =           0.2879
      STREAM LEAKAGE     =   103300608.0000        STREAM LEAKAGE     =          11.2309
        UZF RECHARGE     =       73223.9531          UZF RECHARGE     =           0.0000
               GW ET     =           0.0000                 GW ET     =           0.0000
     SURFACE LEAKAGE     =           0.0000       SURFACE LEAKAGE     =           0.0000
           AG WELLS      =           0.0000             AG WELLS      =           0.0000

                TOTAL IN =   111610880.0000                  TOTAL IN =          12.7468

          OUT:                                     OUT:
          ----                                     ----
             STORAGE     =    18809544.0000               STORAGE     =           1.4104
       CONSTANT HEAD     =           0.0000         CONSTANT HEAD     =           0.0000
     HEAD DEP BOUNDS     =     2551528.0000       HEAD DEP BOUNDS     =           0.2891
      STREAM LEAKAGE     =    90176920.0000        STREAM LEAKAGE     =          11.0473
        UZF RECHARGE     =           0.0000          UZF RECHARGE     =           0.0000
               GW ET     =           0.0000                 GW ET     =           0.0000
     SURFACE LEAKAGE     =           0.0000       SURFACE LEAKAGE     =           0.0000
           AG WELLS      =       76629.9531             AG WELLS      =           0.0000

               TOTAL OUT =   111614624.0000                 TOTAL OUT =          12.7467

                IN - OUT =       -3744.0000                  IN - OUT =       3.5286E-05

     PERCENT DISCREPANCY =          -0.00         PERCENT DISCREPANCY =           0.00






         TIME SUMMARY AT END OF TIME STEP   10 IN STRESS PERIOD    5
                    SECONDS     MINUTES      HOURS       DAYS        YEARS
                    -----------------------------------------------------------
   TIME STEP LENGTH  87667.      1461.1      24.352      1.0147     2.77799E-03
 STRESS PERIOD TIME 8.76667E+05  14611.      243.52      10.147     2.77799E-02
         TOTAL TIME 8.85306E+06 1.47551E+05  2459.2      102.47     0.28054    
1
 
 SOLVING FOR HEAD 
                                                   Max.-Head-Change                         Max.-Flux-Residual
  Residual-Control   Outer-Iter.   Inner-Iter.     Column Row Layer    Maximum-Head-Change  Column Row Layer    Maximum-Flux-Residual          L2-NORM 
          0                 1           2             2   13     1      -0.2068845126E-02       2   13    1        -0.1160710948E+00      0.3233079493E+00
          0                 2           2             2   13     1       0.1940267444E-03       2   13    1         0.1118956947E-01      0.3200495738E-01
          0                 3           2             4    7     1      -0.1154082021E-01       4    8    1        -0.6198601480E+00      0.1525280233E+01
          0                 4           2             4    7     1       0.1201643514E-01       4    8    1         0.6633952301E+00      0.1624852691E+01
          0                 5           2             4    7     1      -0.4782839771E-03       4    6    1        -0.2722537907E-01      0.6651378777E-01
          0                 6           1             4    7     1       0.5905229740E-05       4    6    1         0.3454841051E-03      0.8440596040E-03

    ------------------------------------------------
       NWT REQUIRED            6 OUTER ITERATIONS 
       AND A TOTAL OF         11 INNER ITERATIONS.
    ------------------------------------------------

 NO OUTPUT CONTROL FOR STRESS PERIOD    5   TIME STEP   11
 
 SOLVING FOR HEAD 
                                                   Max.-Head-Change                         Max.-Flux-Residual
  Residual-Control   Outer-Iter.   Inner-Iter.     Column Row Layer    Maximum-Head-Change  Column Row Layer    Maximum-Flux-Residual          L2-NORM 
          0                 1           2             2   13     1      -0.1821027745E-02       2   13    1        -0.1021399203E+00      0.3083259170E+00
          0                 2           2             2   13     1       0.1709382518E-03       2   13    1         0.9855336353E-02      0.3057103910E-01
          0                 3           2             4    7     1      -0.1154080104E-01       4    8    1        -0.6198597718E+00      0.1525282073E+01
          0                 4           2             4    7     1       0.1201643667E-01       4    8    1         0.6633950843E+00      0.1624861111E+01
          0                 5           2             4    7     1      -0.4782854651E-03       4    6    1        -0.2724692438E-01      0.6652223500E-01
          0                 6           1             4    7     1       0.5901841708E-05       4    6    1         0.3455586448E-03      0.8436787758E-03

    ------------------------------------------------
       NWT REQUIRED            6 OUTER ITERATIONS 
       AND A TOTAL OF         11 INNER ITERATIONS.
    ------------------------------------------------

 NO OUTPUT CONTROL FOR STRESS PERIOD    5   TIME STEP   12
 
 SOLVING FOR HEAD 
                                                   Max.-Head-Change                         Max.-Flux-Residual
  Residual-Control   Outer-Iter.   Inner-Iter.     Column Row Layer    Maximum-Head-Change  Column Row Layer    Maximum-Flux-Residual          L2-NORM 
          0                 1           2             2   13     1      -0.1591255934E-02       2   13    1        -0.8922423647E-01      0.2956594911E+00
          0                 2           2             2   13     1       0.1494951432E-03       2   13    1         0.8616288933E-02      0.2935904550E-01
          0                 3           2             4    7     1      -0.1154078242E-01       4    8    1        -0.6198593364E+00      0.1525283643E+01
          0                 4           2             4    7     1       0.1201637378E-01       4    8    1         0.6633913781E+00      0.1624860735E+01
          0                 5           2             4    7     1      -0.4782262300E-03       4    6    1        -0.2726486105E-01      0.6652219268E-01
          0                 6           1             4    7     1       0.5899066851E-05       4    6    1         0.3456669272E-03      0.8433894335E-03

    ------------------------------------------------
       NWT REQUIRED            6 OUTER ITERATIONS 
       AND A TOTAL OF         11 INNER ITERATIONS.
    ------------------------------------------------

 NO OUTPUT CONTROL FOR STRESS PERIOD    5   TIME STEP   13
 
 SOLVING FOR HEAD 
                                                   Max.-Head-Change                         Max.-Flux-Residual
  Residual-Control   Outer-Iter.   Inner-Iter.     Column Row Layer    Maximum-Head-Change  Column Row Layer    Maximum-Flux-Residual          L2-NORM 
          0                 1           2             3    2     1       0.1455978159E-02       1   13    1        -0.7859898759E-01      0.2850691713E+00
          0                 2           2             3    2     1      -0.1416270439E-03       1   13    1         0.7660208219E-02      0.2834865862E-01
          0                 3           2             4    7     1      -0.1154076393E-01       4    8    1        -0.6198588679E+00      0.1525285300E+01
          0                 4           2             4    7     1       0.1201643574E-01       4    8    1         0.6633945638E+00      0.1624877153E+01
          0                 5           2             4    7     1      -0.4782944663E-03       4    6    1        -0.2728985032E-01      0.6653980888E-01
          0                 6           1             4    7     1       0.5901953052E-05       4    6    1         0.3461078995E-03      0.8440031096E-03

    ------------------------------------------------
       NWT REQUIRED            6 OUTER ITERATIONS 
       AND A TOTAL OF         11 INNER ITERATIONS.
    ------------------------------------------------

 NO OUTPUT CONTROL FOR STRESS PERIOD    5   TIME STEP   14
 
 SOLVING FOR HEAD 
                                                   Max.-Head-Change                         Max.-Flux-Residual
  Residual-Control   Outer-Iter.   Inner-Iter.     Column Row Layer    Maximum-Head-Change  Column Row Layer    Maximum-Flux-Residual          L2-NORM 
          0                 1           2             3    2     1       0.1448713110E-02       3    2    1         0.7554005583E-01      0.2763166335E+00
          0                 2           2             3    2     1      -0.1409203509E-03       3    2    1        -0.7554010318E-02      0.2751436355E-01
          0                 3           2             4    7     1      -0.1154074774E-01       4    8    1        -0.6198585287E+00      0.1525287050E+01
          0                 4           2             4    7     1       0.1201635853E-01       4    8    1         0.6633900695E+00      0.1624874687E+01
          0                 5           2             4    7     1      -0.4782205769E-03       4    6    1        -0.2730660814E-01      0.6653761845E-01
          0                 6           1             4    7     1       0.5897634616E-05       4    6    1         0.3461275135E-03      0.8433967935E-03

    ------------------------------------------------
       NWT REQUIRED            6 OUTER ITERATIONS 
       AND A TOTAL OF         11 INNER ITERATIONS.
    ------------------------------------------------

 NO OUTPUT CONTROL FOR STRESS PERIOD    5   TIME STEP   15
 
 SOLVING FOR HEAD 
                                                   Max.-Head-Change                         Max.-Flux-Residual
  Residual-Control   Outer-Iter.   Inner-Iter.     Column Row Layer    Maximum-Head-Change  Column Row Layer    Maximum-Flux-Residual          L2-NORM 
          0                 1           2             3    2     1       0.1441567160E-02       3    2    1         0.7516336874E-01      0.2691724218E+00
          0                 2           2             3    2     1      -0.1402252441E-03       3    2    1        -0.7516341548E-02      0.2683128327E-01
          0                 3           2             4    7     1      -0.1154073264E-01       4    8    1        -0.6198581642E+00      0.1525288640E+01
          0                 4           2             4    7     1       0.1201635117E-01       4    8    1         0.6633894279E+00      0.1624881580E+01
          0                 5           2             4    7     1      -0.4782173524E-03       4    6    1        -0.2732720769E-01      0.6654520130E-01
          0                 6           1             4    7     1       0.5897594514E-05       4    6    1         0.3463944904E-03      0.8435317299E-03

    ------------------------------------------------
       NWT REQUIRED            6 OUTER ITERATIONS 
       AND A TOTAL OF         11 INNER ITERATIONS.
    ------------------------------------------------

 NO OUTPUT CONTROL FOR STRESS PERIOD    5   TIME STEP   16
 
 SOLVING FOR HEAD 
                                                   Max.-Head-Change                         Max.-Flux-Residual
  Residual-Control   Outer-Iter.   Inner-Iter.     Column Row Layer    Maximum-Head-Change  Column Row Layer    Maximum-Flux-Residual          L2-NORM 
          0                 1           2             3    2     1       0.1434538492E-02       3    2    1         0.7479285681E-01      0.2634348376E+00
          0                 2           2             3    2     1      -0.1395415452E-03       3    2    1        -0.7479290273E-02      0.2628579029E-01
          0                 3           2             4    7     1      -0.1154071783E-01       4    8    1        -0.6198577797E+00      0.1525290221E+01
          0                 4           2             4    7     1       0.1201634270E-01       4    8    1         0.6633887253E+00      0.1624888242E+01
          0                 5           2             4    7     1      -0.4782140422E-03       4    6    1        -0.2734761618E-01      0.6655270466E-01
          0                 6           1             4    7     1       0.5900960367E-05       4    6    1         0.3468576685E-03      0.8440842083E-03

    ------------------------------------------------
       NWT REQUIRED            6 OUTER ITERATIONS 
       AND A TOTAL OF         11 INNER ITERATIONS.
    ------------------------------------------------

 NO OUTPUT CONTROL FOR STRESS PERIOD    5   TIME STEP   17
 
 SOLVING FOR HEAD 
                                                   Max.-Head-Change                         Max.-Flux-Residual
  Residual-Control   Outer-Iter.   Inner-Iter.     Column Row Layer    Maximum-Head-Change  Column Row Layer    Maximum-Flux-Residual          L2-NORM 
          0                 1           2             3    2     1       0.1427540117E-02       3    2    1         0.7442400627E-01      0.2588962982E+00
          0                 2           2             3    2     1      -0.1388607930E-03       3    2    1        -0.7442405141E-02      0.2585212146E-01
          0                 3           2             4    7     1      -0.1154070327E-01       4    8    1        -0.6198574203E+00      0.1525291753E+01
          0                 4           2             4    7     1       0.1201633421E-01       4    8    1         0.6633880244E+00      0.1624894828E+01
          0                 5           2             4    7     1      -0.4782106934E-03       4    6    1        -0.2736786024E-01      0.6656015473E-01
          0                 6           1             4    7     1       0.5897512519E-05       4    6    1         0.3469213480E-03      0.8436994384E-03

    ------------------------------------------------
       NWT REQUIRED            6 OUTER ITERATIONS 
       AND A TOTAL OF         11 INNER ITERATIONS.
    ------------------------------------------------

 NO OUTPUT CONTROL FOR STRESS PERIOD    5   TIME STEP   18
 
 SOLVING FOR HEAD 
                                                   Max.-Head-Change                         Max.-Flux-Residual
  Residual-Control   Outer-Iter.   Inner-Iter.     Column Row Layer    Maximum-Head-Change  Column Row Layer    Maximum-Flux-Residual          L2-NORM 
          0                 1           2             3    2     1       0.1420739948E-02       3    2    1         0.7406556561E-01      0.2553846129E+00
          0                 2           2             3    2     1      -0.1381993207E-03       3    2    1        -0.7406560997E-02      0.2551626592E-01
          0                 3           2             4    7     1      -0.1154068998E-01       4    8    1        -0.6198570496E+00      0.1525293165E+01
          0                 4           2             4    7     1       0.1201632576E-01       4    8    1         0.6633873228E+00      0.1624901337E+01
          0                 5           2             4    7     1      -0.4782073037E-03       4    6    1        -0.2738791636E-01      0.6656753752E-01
          0                 6           1             4    7     1       0.5897470625E-05       4    6    1         0.3471812911E-03      0.8438001717E-03

    ------------------------------------------------
       NWT REQUIRED            6 OUTER ITERATIONS 
       AND A TOTAL OF         11 INNER ITERATIONS.
    ------------------------------------------------

 NO OUTPUT CONTROL FOR STRESS PERIOD    5   TIME STEP   19
 
 SOLVING FOR HEAD 
                                                   Max.-Head-Change                         Max.-Flux-Residual
  Residual-Control   Outer-Iter.   Inner-Iter.     Column Row Layer    Maximum-Head-Change  Column Row Layer    Maximum-Flux-Residual          L2-NORM 
          0                 1           2             3    2     1       0.1414051295E-02       3    2    1         0.7371298215E-01      0.2527377602E+00
          0                 2           2             3    2     1      -0.1375486958E-03       3    2    1        -0.7371302573E-02      0.2526220473E-01
          0                 3           2             4    7     1      -0.1154067752E-01       4    8    1        -0.6198566955E+00      0.1525294652E+01
          0                 4           2             4    7     1       0.1201631516E-01       4    8    1         0.6633865032E+00      0.1624914338E+01
          0                 5           2             4    7     1      -0.4782016866E-03       4    6    1        -0.2740766902E-01      0.6657494708E-01
          0                 6           1             4    7     1       0.5897400727E-05       4    6    1         0.3474373289E-03      0.8439046824E-03

    ------------------------------------------------
       NWT REQUIRED            6 OUTER ITERATIONS 
       AND A TOTAL OF         11 INNER ITERATIONS.
    ------------------------------------------------

 NO OUTPUT CONTROL FOR STRESS PERIOD    5   TIME STEP   20
 
 SOLVING FOR HEAD 
                                                   Max.-Head-Change                         Max.-Flux-Residual
  Residual-Control   Outer-Iter.   Inner-Iter.     Column Row Layer    Maximum-Head-Change  Column Row Layer    Maximum-Flux-Residual          L2-NORM 
          0                 1           2             3    2     1       0.1407386962E-02       3    2    1         0.7336176101E-01      0.2508005073E+00
          0                 2           2             3    2     1      -0.1369004369E-03       3    2    1        -0.7336180387E-02      0.2507526873E-01
          0                 3           2             4    7     1      -0.1154066602E-01       4    8    1        -0.6198563630E+00      0.1525296005E+01
          0                 4           2             4    7     1       0.1201630675E-01       4    8    1         0.6633858042E+00      0.1624920699E+01
          0                 5           2             4    7     1      -0.4781982192E-03       4    6    1        -0.2742737446E-01      0.6658220498E-01
          0                 6           1             4    7     1       0.5897358385E-05       4    6    1         0.3476927236E-03      0.8440020052E-03

    ------------------------------------------------
       NWT REQUIRED            6 OUTER ITERATIONS 
       AND A TOTAL OF         11 INNER ITERATIONS.
    ------------------------------------------------

 NO OUTPUT CONTROL FOR STRESS PERIOD    5   TIME STEP   21
 
 SOLVING FOR HEAD 
                                                   Max.-Head-Change                         Max.-Flux-Residual
  Residual-Control   Outer-Iter.   Inner-Iter.     Column Row Layer    Maximum-Head-Change  Column Row Layer    Maximum-Flux-Residual          L2-NORM 
          0                 1           2             3    2     1       0.1400914205E-02       3    2    1         0.7302064031E-01      0.2494574316E+00
          0                 2           2             3    2     1      -0.1362708135E-03       3    2    1        -0.7302068247E-02      0.2494439104E-01
          0                 3           2             4    7     1      -0.1154065497E-01       4    8    1        -0.6198560734E+00      0.1525297436E+01
          0                 4           2             4    7     1       0.1201629616E-01       4    8    1         0.6633849890E+00      0.1624931516E+01
          0                 5           2             4    7     1      -0.4781925233E-03       4    6    1        -0.2744677712E-01      0.6658934545E-01
          0                 6           1             4    7     1       0.5897288263E-05       4    6    1         0.3479442360E-03      0.8440996543E-03

    ------------------------------------------------
       NWT REQUIRED            6 OUTER ITERATIONS 
       AND A TOTAL OF         11 INNER ITERATIONS.
    ------------------------------------------------

 NO OUTPUT CONTROL FOR STRESS PERIOD    5   TIME STEP   22
 
 SOLVING FOR HEAD 
                                                   Max.-Head-Change                         Max.-Flux-Residual
  Residual-Control   Outer-Iter.   Inner-Iter.     Column Row Layer    Maximum-Head-Change  Column Row Layer    Maximum-Flux-Residual          L2-NORM 
          0                 1           2             3    2     1       0.1394462748E-02       3    2    1         0.7268061315E-01      0.2485934206E+00
          0                 2           2             3    2     1      -0.1356432615E-03       3    2    1        -0.7268065469E-02      0.2485883926E-01
          0                 3           2             4    7     1      -0.1154064480E-01       4    8    1        -0.6198557561E+00      0.1525298790E+01
          0                 4           2             4    7     1       0.1201628774E-01       4    8    1         0.6633842912E+00      0.1624937723E+01
          0                 5           2             4    7     1      -0.4781889730E-03       4    6    1        -0.2746611815E-01      0.6659647603E-01
          0                 6           1             4    7     1       0.5897244577E-05       4    6    1         0.3481949088E-03      0.8441986840E-03

    ------------------------------------------------
       NWT REQUIRED            6 OUTER ITERATIONS 
       AND A TOTAL OF         11 INNER ITERATIONS.
    ------------------------------------------------

 NO OUTPUT CONTROL FOR STRESS PERIOD    5   TIME STEP   23
 
 SOLVING FOR HEAD 
                                                   Max.-Head-Change                         Max.-Flux-Residual
  Residual-Control   Outer-Iter.   Inner-Iter.     Column Row Layer    Maximum-Head-Change  Column Row Layer    Maximum-Flux-Residual          L2-NORM 
          0                 1           2             3    2     1       0.1388114402E-02       3    2    1         0.7234611010E-01      0.2481271511E+00
          0                 2           2             3    2     1      -0.1350257391E-03       3    2    1        -0.7234615071E-02      0.2481084056E-01
          0                 3           2             4    7     1      -0.1154063565E-01       4    8    1        -0.6198554697E+00      0.1525300077E+01
          0                 4           2             4    7     1       0.1201627791E-01       4    8    1         0.6633835160E+00      0.1624949220E+01
          0                 5           2             4    7     1      -0.4781839255E-03       4    6    1        -0.2748519976E-01      0.6660360430E-01
          0                 6           1             4    7     1       0.5900588475E-05       4    6    1         0.3486409216E-03      0.8447854381E-03

    ------------------------------------------------
       NWT REQUIRED            6 OUTER ITERATIONS 
       AND A TOTAL OF         11 INNER ITERATIONS.
    ------------------------------------------------

 NO OUTPUT CONTROL FOR STRESS PERIOD    5   TIME STEP   24
 
 SOLVING FOR HEAD 
                                                   Max.-Head-Change                         Max.-Flux-Residual
  Residual-Control   Outer-Iter.   Inner-Iter.     Column Row Layer    Maximum-Head-Change  Column Row Layer    Maximum-Flux-Residual          L2-NORM 
          0                 1           2             3    2     1       0.1381953092E-02       3    2    1         0.7202137327E-01      0.2479677767E+00
          0                 2           2             3    2     1      -0.1344264106E-03       3    2    1        -0.7202141312E-02      0.2479214169E-01
          0                 3           2             4    7     1      -0.1154062541E-01       4    8    1        -0.6198551019E+00      0.1525301209E+01
          0                 4           2             4    7     1       0.1201626617E-01       4    8    1         0.6633826357E+00      0.1624954826E+01
          0                 5           2             4    7     1      -0.4781780636E-03       4    6    1        -0.2750406891E-01      0.6661029045E-01
          0                 6           1             4    7     1       0.5900516336E-05       4    6    1         0.3488855307E-03      0.8448836344E-03

    ------------------------------------------------
       NWT REQUIRED            6 OUTER ITERATIONS 
       AND A TOTAL OF         11 INNER ITERATIONS.
    ------------------------------------------------

 NO OUTPUT CONTROL FOR STRESS PERIOD    5   TIME STEP   25
 
 SOLVING FOR HEAD 
                                                   Max.-Head-Change                         Max.-Flux-Residual
  Residual-Control   Outer-Iter.   Inner-Iter.     Column Row Layer    Maximum-Head-Change  Column Row Layer    Maximum-Flux-Residual          L2-NORM 
          0                 1           2             3    2     1       0.1375806806E-02       3    2    1         0.7169749424E-01      0.2480550724E+00
          0                 2           2             3    2     1      -0.1338285436E-03       3    2    1        -0.7169753345E-02      0.2479653126E-01
          0                 3           2             4    7     1      -0.1154061695E-01       4    8    1        -0.6198548522E+00      0.1525302401E+01
          0                 4           2             4    7     1       0.1201616457E-01       4    8    1         0.6633818631E+00      0.1624959811E+01
          0                 5           2             4    7     1      -0.4780800444E-03       4    8    1        -0.2713021491E-01      0.6645409442E-01
          0                 6           1             4    7     1       0.5899306789E-05       4    7    1         0.3440865748E-03      0.8428088593E-03

    ------------------------------------------------
       NWT REQUIRED            6 OUTER ITERATIONS 
       AND A TOTAL OF         11 INNER ITERATIONS.
    ------------------------------------------------

 NO OUTPUT CONTROL FOR STRESS PERIOD    5   TIME STEP   26
 
 SOLVING FOR HEAD 
                                                   Max.-Head-Change                         Max.-Flux-Residual
  Residual-Control   Outer-Iter.   Inner-Iter.     Column Row Layer    Maximum-Head-Change  Column Row Layer    Maximum-Flux-Residual          L2-NORM 
          0                 1           2             3    2     1       0.1369758238E-02       3    2    1         0.7137881410E-01      0.2483337349E+00
          0                 2           2             3    2     1      -0.1332401824E-03       3    2    1        -0.7137885297E-02      0.2481897639E-01
          0                 3           2             4    7     1      -0.1154060809E-01       4    8    1        -0.6198545114E+00      0.1525303432E+01
          0                 4           2             4    7     1       0.1201614839E-01       4    8    1         0.6633809848E+00      0.1624957800E+01
          0                 5           2             4    7     1      -0.4780695965E-03       4    8    1        -0.2712962266E-01      0.6645264968E-01
          0                 6           1             4    7     1       0.5897133457E-05       4    7    1         0.3439598388E-03      0.8425019551E-03

    ------------------------------------------------
       NWT REQUIRED            6 OUTER ITERATIONS 
       AND A TOTAL OF         11 INNER ITERATIONS.
    ------------------------------------------------

 NO OUTPUT CONTROL FOR STRESS PERIOD    5   TIME STEP   27
 
 SOLVING FOR HEAD 
                                                   Max.-Head-Change                         Max.-Flux-Residual
  Residual-Control   Outer-Iter.   Inner-Iter.     Column Row Layer    Maximum-Head-Change  Column Row Layer    Maximum-Flux-Residual          L2-NORM 
          0                 1           2             3    2     1       0.1363890629E-02       3    2    1         0.7106962064E-01      0.2487504120E+00
          0                 2           2             3    2     1      -0.1326694225E-03       3    2    1        -0.7106965862E-02      0.2485430949E-01
          0                 3           2             4    7     1      -0.1154060083E-01       4    8    1        -0.6198542375E+00      0.1525304510E+01
          0                 4           2             4    7     1       0.1201613411E-01       4    8    1         0.6633802104E+00      0.1624955677E+01
          0                 5           2             4    7     1      -0.4780599245E-03       4    8    1        -0.2712907439E-01      0.6645087329E-01
          0                 6           1             4    7     1       0.5895651711E-05       4    8    1         0.3438730876E-03      0.8422780643E-03

    ------------------------------------------------
       NWT REQUIRED            6 OUTER ITERATIONS 
       AND A TOTAL OF         11 INNER ITERATIONS.
    ------------------------------------------------

 NO OUTPUT CONTROL FOR STRESS PERIOD    5   TIME STEP   28
 
 SOLVING FOR HEAD 
                                                   Max.-Head-Change                         Max.-Flux-Residual
  Residual-Control   Outer-Iter.   Inner-Iter.     Column Row Layer    Maximum-Head-Change  Column Row Layer    Maximum-Flux-Residual          L2-NORM 
          0                 1           2             4   13     1       0.2970923098E-02       4   13    1         0.1707904201E+00      0.4106921480E+00
          0                 2           2             7   13     1      -0.6833638270E-03       7   13    1        -0.3790019564E-01      0.5465144238E-01
          0                 3           2             4    7     1      -0.1154059398E-01       4    8    1        -0.6198539903E+00      0.1525057855E+01
          0                 4           2             4    7     1       0.1201612130E-01       4    8    1         0.6633795175E+00      0.1624954967E+01
          0                 5           2             4    7     1      -0.4780517120E-03       4    8    1        -0.2712860894E-01      0.6644978658E-01
          0                 6           1             4    7     1       0.5898957299E-05       4    8    1         0.3440658770E-03      0.8427459593E-03

    ------------------------------------------------
       NWT REQUIRED            6 OUTER ITERATIONS 
       AND A TOTAL OF         11 INNER ITERATIONS.
    ------------------------------------------------

 NO OUTPUT CONTROL FOR STRESS PERIOD    5   TIME STEP   29
 
 SOLVING FOR HEAD 
                                                   Max.-Head-Change                         Max.-Flux-Residual
  Residual-Control   Outer-Iter.   Inner-Iter.     Column Row Layer    Maximum-Head-Change  Column Row Layer    Maximum-Flux-Residual          L2-NORM 
          0                 1           2             4   13     1       0.1109013040E-01       4   13    1         0.6375549322E+00      0.1196403945E+01
          0                 2           2             4   13     1      -0.1067611047E-02       4   13    1        -0.6310581777E-01      0.1168552589E+00
          0                 3           2             4    7     1      -0.1154058439E-01       4    8    1        -0.6198536820E+00      0.1524945573E+01
          0                 4           2             4    7     1       0.1201610362E-01       4    8    1         0.6633785620E+00      0.1624952108E+01
          0                 5           2             4    7     1      -0.4780398044E-03       4    8    1        -0.2712793406E-01      0.6644810347E-01
          0                 6           1             4    7     1       0.5895403708E-05       4    8    1         0.3438586236E-03      0.8422382589E-03

    ------------------------------------------------
       NWT REQUIRED            6 OUTER ITERATIONS 
       AND A TOTAL OF         11 INNER ITERATIONS.
    ------------------------------------------------

 NO OUTPUT CONTROL FOR STRESS PERIOD    5   TIME STEP   30



 STREAM LISTING     PERIOD      5   STEP       30

 LAYER ROW COL. STREAM  RCH.  FLOW INTO     FLOW TO   FLOW OUT OF   OVRLND.     DIRECT     STREAM       STREAM     STREAM     STREAM   STREAMBED  STREAMBED
                SEG.NO.  NO.  STRM. RCH.    AQUIFER    STRM. RCH.    RUNOFF     PRECIP       ET          HEAD       DEPTH      WIDTH   CONDCTNC.   GRADIENT

   1    1    1     1     1    3.7125E+01  2.9395E-01   3.6831E+01  0.000E+00  0.000E+00  0.000E+00  1.09436E+03  1.309E+00  1.516E+01  6.821E-02  1.436E+00
   1    2    2     1     2    3.6831E+01  4.5518E-01   3.6376E+01  0.000E+00  0.000E+00  0.000E+00  1.08936E+03  1.306E+00  1.510E+01  1.057E-01  1.435E+00
   1    3    3     1     3    3.6376E+01  3.8814E-01   3.5988E+01  0.000E+00  0.000E+00  0.000E+00  1.08372E+03  1.303E+00  1.503E+01  9.020E-02  1.434E+00
   1    3    4     1     4    3.5988E+01  3.5737E-01   3.5631E+01  0.000E+00  0.000E+00  0.000E+00  1.07871E+03  1.300E+00  1.497E+01  8.311E-02  1.433E+00
   1    4    5     2     1    3.3631E+01  3.4618E-01   3.3284E+01  0.000E+00  0.000E+00  0.000E+00  1.07337E+03  1.438E+00  1.200E+01  7.800E-02  1.479E+00
   1    5    6     2     2    3.3284E+01  2.6582E-01   3.3019E+01  0.000E+00  0.000E+00  0.000E+00  1.06794E+03  1.430E+00  1.200E+01  6.000E-02  1.477E+00
   1    6    6     2     3    3.3019E+01  2.6541E-01   3.2753E+01  0.000E+00  0.000E+00  0.000E+00  1.06322E+03  1.423E+00  1.200E+01  6.000E-02  1.474E+00
   1    7    6     2     4    3.2753E+01  2.6499E-01   3.2488E+01  0.000E+00  0.000E+00  0.000E+00  1.05849E+03  1.417E+00  1.200E+01  6.000E-02  1.472E+00
   1    8    6     2     5    3.2488E+01  2.6458E-01   3.2224E+01  0.000E+00  0.000E+00  0.000E+00  1.05377E+03  1.410E+00  1.200E+01  6.000E-02  1.470E+00
   1    3    5     3     1    2.0000E+00  2.8252E-01   1.7175E+00  0.000E+00  0.000E+00  0.000E+00  1.07555E+03  1.909E+00  9.636E+00  7.227E-02  1.955E+00
   1    3    6     3     2    1.7175E+00  2.4905E-01   1.4684E+00  0.000E+00  0.000E+00  0.000E+00  1.07264E+03  1.727E+00  8.909E+00  6.682E-02  1.864E+00
   1    3    7     3     3    1.4684E+00  1.9718E-01   1.2712E+00  0.000E+00  0.000E+00  0.000E+00  1.06987E+03  1.555E+00  8.218E+00  5.547E-02  1.777E+00
   1    4    8     3     4    1.2712E+00  2.2567E-01   1.0456E+00  0.000E+00  0.000E+00  0.000E+00  1.06682E+03  1.364E+00  7.455E+00  6.709E-02  1.682E+00
   1    5    8     3     5    1.0456E+00  1.5790E-01   8.8768E-01  0.000E+00  0.000E+00  0.000E+00  1.06362E+03  1.164E+00  6.655E+00  4.991E-02  1.582E+00
   1    6    8     3     6    8.8768E-01  5.5980E-02   8.3170E-01  0.000E+00  0.000E+00  0.000E+00  1.06158E+03  1.036E+00  6.145E+00  1.844E-02  1.518E+00
   1    5   10     4     1    1.0000E+01  9.0919E-02   9.9091E+00  0.000E+00  0.000E+00  0.000E+00  1.07836E+03  6.368E-01  1.000E+01  2.500E-02  1.212E+00
   1    5    9     4     2    9.9091E+00  1.8158E-01   9.7275E+00  0.000E+00  0.000E+00  0.000E+00  1.07154E+03  6.315E-01  1.000E+01  5.000E-02  1.211E+00
   1    6    8     4     3    9.7275E+00  1.2689E-01   9.6006E+00  0.000E+00  0.000E+00  0.000E+00  1.06381E+03  6.256E-01  1.000E+01  3.500E-02  1.209E+00
   1    6    8     5     1    1.0432E+01  2.2686E-01   1.0205E+01  0.000E+00  0.000E+00  0.000E+00  1.05868E+03  6.790E-01  1.542E+01  6.166E-02  1.226E+00
   1    7    7     5     2    1.0205E+01  2.7894E-01   9.9265E+00  0.000E+00  0.000E+00  0.000E+00  1.05417E+03  6.732E-01  1.519E+01  7.594E-02  1.224E+00
   1    8    7     5     3    9.9265E+00  1.9221E-01   9.7343E+00  0.000E+00  0.000E+00  0.000E+00  1.04992E+03  6.676E-01  1.497E+01  5.241E-02  1.223E+00
   1    8    6     5     4    9.7343E+00  1.3577E-01   9.5985E+00  0.000E+00  0.000E+00  0.000E+00  1.04691E+03  6.637E-01  1.482E+01  3.706E-02  1.221E+00
   1    9    6     6     1    3.8102E+01  2.7414E-01   3.7828E+01  0.000E+00  0.000E+00  0.000E+00  1.04430E+03  1.569E+00  1.200E+01  6.000E-02  1.523E+00
   1   10    7     6     2    3.7828E+01  2.7373E-01   3.7554E+01  0.000E+00  0.000E+00  0.000E+00  1.03974E+03  1.562E+00  1.200E+01  6.000E-02  1.521E+00
   1   11    7     6     3    3.7554E+01  2.7332E-01   3.7281E+01  0.000E+00  0.000E+00  0.000E+00  1.03519E+03  1.555E+00  1.200E+01  6.000E-02  1.518E+00
   1   12    7     6     4    3.7281E+01  2.7291E-01   3.7008E+01  0.000E+00  0.000E+00  0.000E+00  1.03064E+03  1.548E+00  1.200E+01  6.000E-02  1.516E+00
   1   13    7     6     5    3.7008E+01  1.4539E-02   3.6993E+01  0.000E+00  0.000E+00  0.000E+00  1.02745E+03  1.545E+00  1.200E+01  2.400E-02  2.019E-01
   1   14    9     7     1    1.5000E+02  1.3674E+00   1.4863E+02  0.000E+00  0.000E+00  0.000E+00  1.03987E+03  2.288E+00  5.529E+01  5.593E-01  8.150E-01
   1   13    8     7     2    1.4863E+02  1.9166E+00   1.4672E+02  0.000E+00  0.000E+00  0.000E+00  1.03478E+03  2.279E+00  5.526E+01  6.148E-01  1.039E+00
   1   13    7     7     3    1.4672E+02  1.5863E+00   1.4513E+02  0.000E+00  0.000E+00  0.000E+00  1.02969E+03  2.270E+00  5.521E+01  5.584E-01  9.469E-01
   1   13    6     8     1    1.8212E+02  1.0801E+00   1.8104E+02  0.000E+00  0.000E+00  0.000E+00  1.02490E+03  3.026E+00  4.388E+01  4.471E-01  8.052E-01
   1   13    5     8     2    1.8104E+02  2.9312E-01   1.8075E+02  0.000E+00  0.000E+00  0.000E+00  1.01865E+03  3.022E+00  4.382E+01  4.465E-01  2.188E-01
   1   13    4     8     3    1.8075E+02 -1.7878E+00   1.8254E+02  0.000E+00  0.000E+00  0.000E+00  1.01240E+03  3.026E+00  4.388E+01  4.472E+00 -1.333E-01
   1   13    3     8     4    1.8254E+02 -3.1361E+00   1.8567E+02  0.000E+00  0.000E+00  0.000E+00  1.00617E+03  3.042E+00  4.411E+01  4.495E+00 -2.326E-01
   1   13    2     8     5    1.8567E+02 -2.0932E+00   1.8777E+02  0.000E+00  0.000E+00  0.000E+00  9.99933E+02  3.058E+00  4.434E+01  4.518E+00 -1.544E-01
   1   13    1     8     6    1.8777E+02 -1.7345E+00   1.8950E+02  0.000E+00  0.000E+00  0.000E+00  9.94945E+02  3.070E+00  4.451E+01  2.721E+00 -2.125E-01
   1    8    6     9     1    3.7200E+00  0.0000E+00   3.7200E+00  0.000E+00  0.000E+00  0.000E+00  1.08000E+03  1.252E+00  4.000E+00  0.000E+00  1.417E+00
   1    8    5     9     2    3.7200E+00  0.0000E+00   3.7200E+00  0.000E+00  0.000E+00  0.000E+00  1.07950E+03  1.252E+00  4.000E+00  0.000E+00  1.417E+00





UNSATURATED ZONE PACKAGE VOLUMETRIC BUDGET FOR  TIME STEP    30 STRESS PERIOD    5
  ------------------------------------------------------------------------------



     CUMULATIVE VOLUMES      L**3       RATES FOR THIS TIME STEP      L**3/T
     ------------------                 ------------------------

           IN:                                      IN:
           ---                                      ---
        INFILTRATION =    18775377.7639          INFILTRATION =           4.5676

          OUT:                                     OUT:
          ----                                     ----
              UZF ET =    18618039.8183                UZF ET =           4.5675
        UZF RECHARGE =       73224.0000          UZF RECHARGE =       0.0000E+00

            IN - OUT =       84113.9456              IN - OUT =       1.1086E-04

          STORAGE:                                 STORAGE:
          --------                                 --------
      STORAGE CHANGE =       84113.3928        STORAGE CHANGE =       1.1083E-04

 PERCENT DISCREPANCY IS DIFFERENCE BETWEEN IN-OUT MINUS CHANGE IN STORAGE
 DIVIDED BY THE AVERAGE OF IN AND OUT TIMES 100

 PERCENT DISCREPANCY =           0.00     PERCENT DISCREPANCY =           0.00






1
  VOLUMETRIC BUDGET FOR AGRICULTURAL FIELDS AT  END OF TIME STEP   30, STRESS PERIOD   5
  ------------------------------------------------------------------------------

     CUMULATIVE VOLUMES      L**3       RATES FOR THIS TIME STEP      L**3/T
     ------------------                 ------------------------

           IN:                                      IN:
           ---                                      ---
               AG WELLS  =       76631.0938                 AG WELLS  =       1.1921E-06
      DIVERSION SEGMENTS =     9709631.0000        DIVERSION SEGMENTS =           3.7200
       IRRIGATION PONDS  =           0.0000         IRRIGATION PONDS  =           0.0000
           GW IRRIGATION =           0.0000             GW IRRIGATION =           0.0000
           SW IRRIGATION =           0.0000             SW IRRIGATION =           0.0000
        SYSTEM LOSSES GW =           0.0000          SYSTEM LOSSES GW =           0.0000
        SYSTEM LOSSES SW =           0.0000          SYSTEM LOSSES SW =           0.0000

                TOTAL IN =     9786262.0000                  TOTAL IN =           3.7200

          OUT:                                     OUT:
          ----                                     ----
               AG WELLS  =           0.0000                 AG WELLS  =           0.0000
      DIVERSION SEGMENTS =           0.0000        DIVERSION SEGMENTS =           0.0000
       IRRIGATION PONDS  =           0.0000         IRRIGATION PONDS  =           0.0000
           GW IRRIGATION =       76631.0938             GW IRRIGATION =       1.1921E-06
           SW IRRIGATION =     9709824.0000             SW IRRIGATION =           3.7201
        SYSTEM LOSSES GW =           0.0000          SYSTEM LOSSES GW =           0.0000
        SYSTEM LOSSES SW =           0.0000          SYSTEM LOSSES SW =           0.0000

               TOTAL OUT =     9786455.0000                 TOTAL OUT =           3.7201

                IN - OUT =        -193.0000                  IN - OUT =      -7.4148E-05

     PERCENT DISCREPANCY =          -0.00         PERCENT DISCREPANCY =          -0.00



1
  VOLUMETRIC BUDGET FOR ENTIRE MODEL AT END OF TIME STEP   30, STRESS PERIOD   5
  ------------------------------------------------------------------------------

     CUMULATIVE VOLUMES      L**3       RATES FOR THIS TIME STEP      L**3/T
     ------------------                 ------------------------

           IN:                                      IN:
           ---                                      ---
             STORAGE     =     7195528.0000               STORAGE     =           0.4147
       CONSTANT HEAD     =           0.0000         CONSTANT HEAD     =           0.0000
     HEAD DEP BOUNDS     =     3052947.5000       HEAD DEP BOUNDS     =           0.2879
      STREAM LEAKAGE     =   123163664.0000        STREAM LEAKAGE     =          12.6552
        UZF RECHARGE     =       73223.9531          UZF RECHARGE     =           0.0000
               GW ET     =           0.0000                 GW ET     =           0.0000
     SURFACE LEAKAGE     =           0.0000       SURFACE LEAKAGE     =           0.0000
           AG WELLS      =           0.0000             AG WELLS      =           0.0000

                TOTAL IN =   133485368.0000                  TOTAL IN =          13.3578

          OUT:                                     OUT:
          ----                                     ----
             STORAGE     =    21510866.0000               STORAGE     =           4.3180
       CONSTANT HEAD     =           0.0000         CONSTANT HEAD     =           0.0000
     HEAD DEP BOUNDS     =     3057160.5000       HEAD DEP BOUNDS     =           0.2881
      STREAM LEAKAGE     =   108844400.0000        STREAM LEAKAGE     =           8.7516
        UZF RECHARGE     =           0.0000          UZF RECHARGE     =           0.0000
               GW ET     =           0.0000                 GW ET     =           0.0000
     SURFACE LEAKAGE     =           0.0000       SURFACE LEAKAGE     =           0.0000
           AG WELLS      =       76631.0938             AG WELLS      =       1.1921E-06

               TOTAL OUT =   133489056.0000                 TOTAL OUT =          13.3577

                IN - OUT =       -3688.0000                  IN - OUT =       3.5286E-05

     PERCENT DISCREPANCY =          -0.00         PERCENT DISCREPANCY =           0.00






         TIME SUMMARY AT END OF TIME STEP   30 IN STRESS PERIOD    5
                    SECONDS     MINUTES      HOURS       DAYS        YEARS
                    -----------------------------------------------------------
   TIME STEP LENGTH  87667.      1461.1      24.352      1.0147     2.77799E-03
 STRESS PERIOD TIME 2.63000E+06  43833.      730.56      30.440     8.33397E-02
         TOTAL TIME 1.06064E+07 1.76773E+05  2946.2      122.76     0.33610    
1
1
                            STRESS PERIOD NO.    6, LENGTH =   2630000.    
                            -----------------------------------------------

                              NUMBER OF TIME STEPS =    30

                               MULTIPLIER FOR DELT =     1.000

                            INITIAL TIME STEP SIZE =   87666.66    

 REUSING NON-PARAMETER GHB CELLS FROM LAST STRESS PERIOD

      2 GHB CELLS

 REUSING STREAM SEGMENT DATA FROM LAST STRESS PERIOD



            AREAL INFILTRATION RATE
 READING ON UNIT   19 WITH FORMAT: (FREE)              

            1           2           3           4           5           6           7           8           9          10
 ........................................................................................................................
   1   1.0000E-10  2.0000E-10   0.000       0.000       0.000       0.000       0.000       0.000       0.000       0.000    
   2   2.0000E-10  1.0000E-10  2.0000E-10   0.000       0.000      8.0000E-10  8.0000E-10  5.0000E-10   0.000       0.000    
   3    0.000      5.0000E-10  1.0000E-10  1.0000E-10  8.0000E-10  8.0000E-10  5.0000E-10  5.0000E-10   0.000       0.000    
   4   8.0000E-10  5.0000E-10  1.0000E-10  1.0000E-10  1.0000E-10  1.0000E-10  1.0000E-10  1.0000E-10  2.0000E-10   0.000    
   5   8.0000E-10  5.0000E-10  1.0000E-10  1.0000E-10  1.0000E-10  1.0000E-10  1.0000E-10  1.0000E-10  1.0000E-10  1.0000E-10
   6   8.0000E-10  5.0000E-10  5.0000E-10  2.0000E-10  2.0000E-10  1.0000E-10  1.0000E-10  1.0000E-10  1.0000E-10  5.0000E-10
   7   8.0000E-10  5.0000E-10  5.0000E-10  2.0000E-10  2.0000E-10  1.0000E-10  1.0000E-10  2.0000E-10  2.0000E-10   0.000    
   8    0.000      5.0000E-10  5.0000E-10  2.0000E-10  2.0000E-10  1.0000E-10  1.0000E-10  2.0000E-10  5.0000E-10   0.000    
   9    0.000      5.0000E-10  5.0000E-10  2.0000E-10  2.0000E-10  1.0000E-10  1.0000E-10  2.0000E-10  5.0000E-10   0.000    
  10    0.000      5.0000E-10  5.0000E-10  2.0000E-10  2.0000E-10  1.0000E-10  1.0000E-10  2.0000E-10  5.0000E-10  8.0000E-10
  11    0.000      1.0000E-10  1.0000E-10  1.0000E-10  1.0000E-10  1.0000E-10  1.0000E-10  2.0000E-10  5.0000E-10   0.000    
  12   1.0000E-10  1.0000E-10  1.0000E-10  1.0000E-10  1.0000E-10  1.0000E-10  1.0000E-10  1.0000E-10  2.0000E-10   0.000    
  13   1.0000E-10  1.0000E-10  2.0000E-10  2.0000E-10  2.0000E-10  2.0000E-10  2.0000E-10  1.0000E-10  1.0000E-10   0.000    
  14    0.000      2.0000E-10  5.0000E-10  5.0000E-10  5.0000E-10  5.0000E-10  5.0000E-10  2.0000E-10  1.0000E-10   0.000    
  15    0.000       0.000      8.0000E-10  8.0000E-10  8.0000E-10  8.0000E-10   0.000       0.000       0.000       0.000    

                  ET RATE =  5.000000E-08

 USING ET EXTINCTION DEPTH FROM PREVIOUS STRESS PERIOD. CURRENT PERIOD IS:       6

 USING EXTINCTION WATER CONTENT FROM PREVIOUS STRESS PERIOD. CURRENT PERIOD IS:       6

 USING AIR ENTRY PRESSURE FROM PREVIOUS STRESS PERIOD. CURRENT PERIOD IS:       6

 USING ROOT PRESSURE HEAD FROM PREVIOUS STRESS PERIOD. CURRENT PERIOD IS:       6

 USING ROOT ACTIVITY FROM PREVIOUS STRESS PERIOD. CURRENT PERIOD IS:       6

 PROCESSING AG STRESS PERIOD DATA

 READING AG STRESS PERIOD DATA

 READING IRRIGATION SEGMENT

 READING IRRIGATION WELL

 READING SUPPLEMENTAL WELL

 NO IRRPOND OR REUSING IRRPOND DATA FROM LAST STRESS PERIOD

 END PROCESSING AG STRESS PERIOD DATA OPTIONS
 
 SOLVING FOR HEAD 
                                                   Max.-Head-Change                         Max.-Flux-Residual
  Residual-Control   Outer-Iter.   Inner-Iter.     Column Row Layer    Maximum-Head-Change  Column Row Layer    Maximum-Flux-Residual          L2-NORM 
          0                 1           2             4   13     1       0.7103436738E-02       4   13    1         0.4078172174E+00      0.8746443696E+00
          0                 2           2             4    7     1      -0.1168256673E-01       5    6    1        -0.6291087332E+00      0.1554123429E+01
          0                 3           2             4    7     1       0.1210878172E-01       5    6    1         0.6686146306E+00      0.1637617847E+01
          0                 4           2             4    7     1      -0.4818277839E-03       5    6    1        -0.2734673614E-01      0.6697932289E-01
          0                 5           1             4    7     1       0.5946592078E-05       5    6    1         0.3468852447E-03      0.8496101702E-03

    ------------------------------------------------
       NWT REQUIRED            5 OUTER ITERATIONS 
       AND A TOTAL OF          9 INNER ITERATIONS.
    ------------------------------------------------

 NO OUTPUT CONTROL FOR STRESS PERIOD    6   TIME STEP    1
 
 SOLVING FOR HEAD 
                                                   Max.-Head-Change                         Max.-Flux-Residual
  Residual-Control   Outer-Iter.   Inner-Iter.     Column Row Layer    Maximum-Head-Change  Column Row Layer    Maximum-Flux-Residual          L2-NORM 
          0                 1           2             4   13     1       0.9646488267E-02       4   13    1         0.5541320736E+00      0.1091762414E+01
          0                 2           2             4   13     1      -0.9285568032E-03       4   13    1        -0.5484344954E-01      0.1067537845E+00
          0                 3           2             4    7     1      -0.2295161926E-01       4    8    1        -0.1232691325E+01      0.3033360631E+01
          0                 4           2             4    7     1       0.2389430899E-01       4    8    1         0.1319132565E+01      0.3231138429E+01
          0                 5           2             4    7     1      -0.9511320164E-03       4    6    1        -0.5447162101E-01      0.1324005670E+00
          0                 6           1             4    7     1       0.1174337497E-04       4    6    1         0.6912978738E-03      0.1680300596E-02

    ------------------------------------------------
       NWT REQUIRED            6 OUTER ITERATIONS 
       AND A TOTAL OF         11 INNER ITERATIONS.
    ------------------------------------------------

 NO OUTPUT CONTROL FOR STRESS PERIOD    6   TIME STEP    2
 
 SOLVING FOR HEAD 
                                                   Max.-Head-Change                         Max.-Flux-Residual
  Residual-Control   Outer-Iter.   Inner-Iter.     Column Row Layer    Maximum-Head-Change  Column Row Layer    Maximum-Flux-Residual          L2-NORM 
          0                 1           2             4   13     1       0.9019830055E-02       4   13    1         0.5179352080E+00      0.1046226809E+01
          0                 2           2             4   13     1      -0.8682183375E-03       4   13    1        -0.5125977219E-01      0.1023636683E+00
          0                 3           2             4    7     1      -0.2298967124E-01       4    8    1        -0.1234735045E+01      0.3038366349E+01
          0                 4           2             4    7     1       0.2393392815E-01       4    8    1         0.1321319605E+01      0.3236501932E+01
          0                 5           2             4    7     1      -0.9527130158E-03       4    6    1        -0.5457923928E-01      0.1326272576E+00
          0                 6           1             4    7     1       0.1176288387E-04       4    6    1         0.6926675335E-03      0.1683089714E-02

    ------------------------------------------------
       NWT REQUIRED            6 OUTER ITERATIONS 
       AND A TOTAL OF         11 INNER ITERATIONS.
    ------------------------------------------------

 NO OUTPUT CONTROL FOR STRESS PERIOD    6   TIME STEP    3
 
 SOLVING FOR HEAD 
                                                   Max.-Head-Change                         Max.-Flux-Residual
  Residual-Control   Outer-Iter.   Inner-Iter.     Column Row Layer    Maximum-Head-Change  Column Row Layer    Maximum-Flux-Residual          L2-NORM 
          0                 1           2             4   13     1       0.8455748931E-02       4   13    1         0.4853632473E+00      0.1005095281E+01
          0                 2           2             4   13     1      -0.8138690192E-03       4   13    1        -0.4803284700E-01      0.9839936158E-01
          0                 3           2             4    7     1      -0.2299776349E-01       4    8    1        -0.1235169789E+01      0.3039413957E+01
          0                 4           2             4    7     1       0.2394236261E-01       4    8    1         0.1321785036E+01      0.3237648647E+01
          0                 5           2             4    7     1      -0.9530527971E-03       4    6    1        -0.5461629112E-01      0.1326813809E+00
          0                 6           1             4    7     1       0.1176707663E-04       4    6    1         0.6931423168E-03      0.1683784329E-02

    ------------------------------------------------
       NWT REQUIRED            6 OUTER ITERATIONS 
       AND A TOTAL OF         11 INNER ITERATIONS.
    ------------------------------------------------

 NO OUTPUT CONTROL FOR STRESS PERIOD    6   TIME STEP    4
 
 SOLVING FOR HEAD 
                                                   Max.-Head-Change                         Max.-Flux-Residual
  Residual-Control   Outer-Iter.   Inner-Iter.     Column Row Layer    Maximum-Head-Change  Column Row Layer    Maximum-Flux-Residual          L2-NORM 
          0                 1           2             4   13     1       0.7947196312E-02       4   13    1         0.4560071255E+00      0.9678960060E+00
          0                 2           2             4   13     1      -0.7647461890E-03       4   13    1        -0.4511713805E-01      0.9481298629E-01
          0                 3           2             4    7     1      -0.2300522249E-01       4    8    1        -0.1235570461E+01      0.3040379042E+01
          0                 4           2             4    7     1       0.2395013850E-01       4    8    1         0.1322214106E+01      0.3238706260E+01
          0                 5           2             4    7     1      -0.9533663353E-03       4    6    1        -0.5465171250E-01      0.1327317940E+00
          0                 6           1             4    7     1       0.1177094566E-04       4    6    1         0.6935963818E-03      0.1684430596E-02

    ------------------------------------------------
       NWT REQUIRED            6 OUTER ITERATIONS 
       AND A TOTAL OF         11 INNER ITERATIONS.
    ------------------------------------------------

 NO OUTPUT CONTROL FOR STRESS PERIOD    6   TIME STEP    5
 
 SOLVING FOR HEAD 
                                                   Max.-Head-Change                         Max.-Flux-Residual
  Residual-Control   Outer-Iter.   Inner-Iter.     Column Row Layer    Maximum-Head-Change  Column Row Layer    Maximum-Flux-Residual          L2-NORM 
          0                 1           2             4   13     1       0.7488992854E-02       4   13    1         0.4295662997E+00      0.9342359110E+00
          0                 2           2             4   13     1      -0.7207622943E-03       4   13    1        -0.4250742502E-01      0.9157647150E-01
          0                 3           2             4    7     1      -0.2301211705E-01       4    8    1        -0.1235940809E+01      0.3041271912E+01
          0                 4           2             4    7     1       0.2395732747E-01       4    8    1         0.1322610775E+01      0.3239684543E+01
          0                 5           2             4    7     1      -0.9536564870E-03       4    6    1        -0.5468569655E-01      0.1327789227E+00
          0                 6           1             4    7     1       0.1177452591E-04       4    6    1         0.6940321907E-03      0.1685036463E-02

    ------------------------------------------------
       NWT REQUIRED            6 OUTER ITERATIONS 
       AND A TOTAL OF         11 INNER ITERATIONS.
    ------------------------------------------------

 NO OUTPUT CONTROL FOR STRESS PERIOD    6   TIME STEP    6
 
 SOLVING FOR HEAD 
                                                   Max.-Head-Change                         Max.-Flux-Residual
  Residual-Control   Outer-Iter.   Inner-Iter.     Column Row Layer    Maximum-Head-Change  Column Row Layer    Maximum-Flux-Residual          L2-NORM 
          0                 1           2             2   13     1       0.7134210312E-02       4   13    1         0.4057258154E+00      0.9037583695E+00
          0                 2           2             4   13     1      -0.6809539627E-03       4   13    1        -0.4014620615E-01      0.8864356519E-01
          0                 3           2             4    7     1      -0.2301851162E-01       4    8    1        -0.1236284296E+01      0.3042099782E+01
          0                 4           2             4    7     1       0.2396399651E-01       4    8    1         0.1322978740E+01      0.3240592472E+01
          0                 5           2             4    7     1      -0.9539259198E-03       4    6    1        -0.5471839331E-01      0.1328231320E+00
          0                 6           1             4    7     1       0.1177785076E-04       4    6    1         0.6944516301E-03      0.1685603201E-02

    ------------------------------------------------
       NWT REQUIRED            6 OUTER ITERATIONS 
       AND A TOTAL OF         11 INNER ITERATIONS.
    ------------------------------------------------

 NO OUTPUT CONTROL FOR STRESS PERIOD    6   TIME STEP    7
 
 SOLVING FOR HEAD 
                                                   Max.-Head-Change                         Max.-Flux-Residual
  Residual-Control   Outer-Iter.   Inner-Iter.     Column Row Layer    Maximum-Head-Change  Column Row Layer    Maximum-Flux-Residual          L2-NORM 
          0                 1           2             2   13     1       0.6812584390E-02       4   13    1         0.3842275988E+00      0.8761372585E+00
          0                 2           2             4   13     1      -0.6450443243E-03       4   13    1        -0.3801700269E-01      0.8598698550E-01
          0                 3           2             4    7     1      -0.2302445548E-01       4    8    1        -0.1236603665E+01      0.3042869485E+01
          0                 4           2             4    7     1       0.2397019867E-01       4    8    1         0.1323320937E+01      0.3241437266E+01
          0                 5           2             4    7     1      -0.9541767481E-03       4    6    1        -0.5474993755E-01      0.1328647251E+00
          0                 6           1             4    7     1       0.1178094576E-04       4    6    1         0.6948564410E-03      0.1686141456E-02

    ------------------------------------------------
       NWT REQUIRED            6 OUTER ITERATIONS 
       AND A TOTAL OF         11 INNER ITERATIONS.
    ------------------------------------------------

 NO OUTPUT CONTROL FOR STRESS PERIOD    6   TIME STEP    8
 
 SOLVING FOR HEAD 
                                                   Max.-Head-Change                         Max.-Flux-Residual
  Residual-Control   Outer-Iter.   Inner-Iter.     Column Row Layer    Maximum-Head-Change  Column Row Layer    Maximum-Flux-Residual          L2-NORM 
          0                 1           2             2   13     1       0.6515186090E-02       2   13    1         0.3670737617E+00      0.8510766932E+00
          0                 2           2             4   13     1      -0.6126402492E-03       4   13    1        -0.3609633146E-01      0.8357753200E-01
          0                 3           2             4    7     1      -0.2302999682E-01       4    8    1        -0.1236901304E+01      0.3043587102E+01
          0                 4           2             4    7     1       0.2397598038E-01       4    8    1         0.1323639917E+01      0.3242225174E+01
          0                 5           2             4    7     1      -0.9544108156E-03       4    6    1        -0.5478041627E-01      0.1329039496E+00
          0                 6           1             4    7     1       0.1178383420E-04       4    6    1         0.6952476990E-03      0.1686642905E-02

    ------------------------------------------------
       NWT REQUIRED            6 OUTER ITERATIONS 
       AND A TOTAL OF         11 INNER ITERATIONS.
    ------------------------------------------------

 NO OUTPUT CONTROL FOR STRESS PERIOD    6   TIME STEP    9
 
 SOLVING FOR HEAD 
                                                   Max.-Head-Change                         Max.-Flux-Residual
  Residual-Control   Outer-Iter.   Inner-Iter.     Column Row Layer    Maximum-Head-Change  Column Row Layer    Maximum-Flux-Residual          L2-NORM 
          0                 1           2             2   13     1       0.6240221311E-02       2   13    1         0.3515620073E+00      0.8283193118E+00
          0                 2           2             4   13     1      -0.5833855274E-03       4   13    1        -0.3436294914E-01      0.8139038416E-01
          0                 3           2             4    7     1      -0.2303517593E-01       4    8    1        -0.1237179528E+01      0.3044257960E+01
          0                 4           2             4    7     1       0.2398138544E-01       4    8    1         0.1323938106E+01      0.3242962137E+01
          0                 5           2             4    7     1      -0.9546298727E-03       4    6    1        -0.5480995841E-01      0.1329410526E+00
          0                 6           1             4    7     1       0.1178653715E-04       4    6    1         0.6956270524E-03      0.1687124920E-02

    ------------------------------------------------
       NWT REQUIRED            6 OUTER ITERATIONS 
       AND A TOTAL OF         11 INNER ITERATIONS.
    ------------------------------------------------

 NO OUTPUT CONTROL FOR STRESS PERIOD    6   TIME STEP   10
 
 SOLVING FOR HEAD 
                                                   Max.-Head-Change                         Max.-Flux-Residual
  Residual-Control   Outer-Iter.   Inner-Iter.     Column Row Layer    Maximum-Head-Change  Column Row Layer    Maximum-Flux-Residual          L2-NORM 
          0                 1           2             2   13     1       0.5986002806E-02       2   13    1         0.3372215259E+00      0.8076326084E+00
          0                 2           2             4   13     1      -0.5569720815E-03       4   13    1        -0.3279852765E-01      0.7940276824E-01
          0                 3           2             4    7     1      -0.2304002838E-01       4    8    1        -0.1237440155E+01      0.3044886742E+01
          0                 4           2             4    7     1       0.2398645081E-01       4    8    1         0.1324217540E+01      0.3243653149E+01
          0                 5           2             4    7     1      -0.9548353861E-03       4    6    1        -0.5483862919E-01      0.1329762452E+00
          0                 6           1             4    7     1       0.1178907341E-04       4    6    1         0.6959953253E-03      0.1687576248E-02

    ------------------------------------------------
       NWT REQUIRED            6 OUTER ITERATIONS 
       AND A TOTAL OF         11 INNER ITERATIONS.
    ------------------------------------------------

 NO OUTPUT CONTROL FOR STRESS PERIOD    6   TIME STEP   11
 
 SOLVING FOR HEAD 
                                                   Max.-Head-Change                         Max.-Flux-Residual
  Residual-Control   Outer-Iter.   Inner-Iter.     Column Row Layer    Maximum-Head-Change  Column Row Layer    Maximum-Flux-Residual          L2-NORM 
          0                 1           2             2   13     1       0.5750923407E-02       2   13    1         0.3239614866E+00      0.7888019734E+00
          0                 2           2             2   13     1      -0.5347363152E-03       4   13    1        -0.3138448711E-01      0.7759345421E-01
          0                 3           2             4    7     1      -0.2304458085E-01       4    8    1        -0.1237684666E+01      0.3045476877E+01
          0                 4           2             4    7     1       0.2399120422E-01       4    8    1         0.1324479752E+01      0.3244301971E+01
          0                 5           2             4    7     1      -0.9550284661E-03       4    6    1        -0.5486652036E-01      0.1330096925E+00
          0                 6           1             4    7     1       0.1179145554E-04       4    6    1         0.6963536960E-03      0.1688012951E-02

    ------------------------------------------------
       NWT REQUIRED            6 OUTER ITERATIONS 
       AND A TOTAL OF         11 INNER ITERATIONS.
    ------------------------------------------------

 NO OUTPUT CONTROL FOR STRESS PERIOD    6   TIME STEP   12
 
 SOLVING FOR HEAD 
                                                   Max.-Head-Change                         Max.-Flux-Residual
  Residual-Control   Outer-Iter.   Inner-Iter.     Column Row Layer    Maximum-Head-Change  Column Row Layer    Maximum-Flux-Residual          L2-NORM 
          0                 1           2             2   13     1       0.5533535258E-02       2   13    1         0.3117001855E+00      0.7716426560E+00
          0                 2           2             2   13     1      -0.5145686969E-03       4   13    1        -0.3010800774E-01      0.7594484978E-01
          0                 3           2             4    7     1      -0.2304886444E-01       4    8    1        -0.1237914733E+01      0.3046032178E+01
          0                 4           2             4    7     1       0.2399567803E-01       4    8    1         0.1324726528E+01      0.3244912948E+01
          0                 5           2             4    7     1      -0.9552103998E-03       4    6    1        -0.5489370142E-01      0.1330415430E+00
          0                 6           1             4    7     1       0.1179370034E-04       4    6    1         0.6967030502E-03      0.1688426509E-02

    ------------------------------------------------
       NWT REQUIRED            6 OUTER ITERATIONS 
       AND A TOTAL OF         11 INNER ITERATIONS.
    ------------------------------------------------

 NO OUTPUT CONTROL FOR STRESS PERIOD    6   TIME STEP   13
 
 SOLVING FOR HEAD 
                                                   Max.-Head-Change                         Max.-Flux-Residual
  Residual-Control   Outer-Iter.   Inner-Iter.     Column Row Layer    Maximum-Head-Change  Column Row Layer    Maximum-Flux-Residual          L2-NORM 
          0                 1           2             2   13     1       0.5332603896E-02       2   13    1         0.3003678879E+00      0.7559835807E+00
          0                 2           2             2   13     1      -0.4959196170E-03       4   13    1        -0.2895506462E-01      0.7444141628E-01
          0                 3           2             4    7     1      -0.2305289694E-01       4    8    1        -0.1238131312E+01      0.3046555360E+01
          0                 4           2             4    7     1       0.2399989072E-01       4    8    1         0.1324958890E+01      0.3245488626E+01
          0                 5           2             4    7     1      -0.9553819222E-03       4    6    1        -0.5492021115E-01      0.1330719343E+00
          0                 6           1             4    7     1       0.1179581744E-04       4    6    1         0.6970438744E-03      0.1688821479E-02

    ------------------------------------------------
       NWT REQUIRED            6 OUTER ITERATIONS 
       AND A TOTAL OF         11 INNER ITERATIONS.
    ------------------------------------------------

 NO OUTPUT CONTROL FOR STRESS PERIOD    6   TIME STEP   14
 
 SOLVING FOR HEAD 
                                                   Max.-Head-Change                         Max.-Flux-Residual
  Residual-Control   Outer-Iter.   Inner-Iter.     Column Row Layer    Maximum-Head-Change  Column Row Layer    Maximum-Flux-Residual          L2-NORM 
          0                 1           2             2   13     1       0.5146741095E-02       2   13    1         0.2898862018E+00      0.7416769629E+00
          0                 2           2             2   13     1      -0.4786430155E-03       4   13    1        -0.2791333449E-01      0.7306751342E-01
          0                 3           2             4    7     1      -0.2305670542E-01       4    8    1        -0.1238335955E+01      0.3047049798E+01
          0                 4           2             4    7     1       0.2400387221E-01       4    8    1         0.1325178495E+01      0.3246033032E+01
          0                 5           2             4    7     1      -0.9555442271E-03       4    6    1        -0.5494612941E-01      0.1331010230E+00
          0                 6           1             4    7     1       0.1179781983E-04       4    6    1         0.6973771638E-03      0.1689199755E-02

    ------------------------------------------------
       NWT REQUIRED            6 OUTER ITERATIONS 
       AND A TOTAL OF         11 INNER ITERATIONS.
    ------------------------------------------------

 NO OUTPUT CONTROL FOR STRESS PERIOD    6   TIME STEP   15
 
 SOLVING FOR HEAD 
                                                   Max.-Head-Change                         Max.-Flux-Residual
  Residual-Control   Outer-Iter.   Inner-Iter.     Column Row Layer    Maximum-Head-Change  Column Row Layer    Maximum-Flux-Residual          L2-NORM 
          0                 1           2             2   13     1       0.4974912627E-02       2   13    1         0.2801967016E+00      0.7285800085E+00
          0                 2           2             2   13     1      -0.4626779131E-03       4   13    1        -0.2696797881E-01      0.7180890787E-01
          0                 3           2             4    7     1      -0.2306030473E-01       4    8    1        -0.1238529259E+01      0.3047517048E+01
          0                 4           2             4    7     1       0.2400763430E-01       4    8    1         0.1325385981E+01      0.3246547748E+01
          0                 5           2             4    7     1      -0.9556977825E-03       4    6    1        -0.5497147872E-01      0.1331288729E+00
          0                 6           1             4    7     1       0.1179971447E-04       4    6    1         0.6977032378E-03      0.1689562833E-02

    ------------------------------------------------
       NWT REQUIRED            6 OUTER ITERATIONS 
       AND A TOTAL OF         11 INNER ITERATIONS.
    ------------------------------------------------

 NO OUTPUT CONTROL FOR STRESS PERIOD    6   TIME STEP   16
 
 SOLVING FOR HEAD 
                                                   Max.-Head-Change                         Max.-Flux-Residual
  Residual-Control   Outer-Iter.   Inner-Iter.     Column Row Layer    Maximum-Head-Change  Column Row Layer    Maximum-Flux-Residual          L2-NORM 
          0                 1           2             2   13     1       0.4815989444E-02       2   13    1         0.2712355815E+00      0.7165798087E+00
          0                 2           2             2    2     1      -0.4519363881E-03       4   13    1        -0.2611373772E-01      0.7065506328E-01
          0                 3           2             4    7     1      -0.2306371299E-01       4    8    1        -0.1238712300E+01      0.3047959799E+01
          0                 4           2             4    7     1       0.2401119765E-01       4    8    1         0.1325582497E+01      0.3247035559E+01
          0                 5           2             4    7     1      -0.9558434106E-03       4    6    1        -0.5499630177E-01      0.1331555780E+00
          0                 6           1             4    7     1       0.1180151143E-04       4    6    1         0.6980226001E-03      0.1689912077E-02

    ------------------------------------------------
       NWT REQUIRED            6 OUTER ITERATIONS 
       AND A TOTAL OF         11 INNER ITERATIONS.
    ------------------------------------------------

 NO OUTPUT CONTROL FOR STRESS PERIOD    6   TIME STEP   17
 
 SOLVING FOR HEAD 
                                                   Max.-Head-Change                         Max.-Flux-Residual
  Residual-Control   Outer-Iter.   Inner-Iter.     Column Row Layer    Maximum-Head-Change  Column Row Layer    Maximum-Flux-Residual          L2-NORM 
          0                 1           2             2   13     1       0.4669062997E-02       2   13    1         0.2629516467E+00      0.7055652066E+00
          0                 2           2             2    2     1      -0.4496856807E-03       4   13    1        -0.2534014971E-01      0.6959686737E-01
          0                 3           2             4    7     1      -0.2306694573E-01       4    8    1        -0.1238885916E+01      0.3048379927E+01
          0                 4           2             4    7     1       0.2401439606E-01       4    8    1         0.1325768936E+01      0.3247498598E+01
          0                 5           2             4    7     1      -0.9557970458E-03       4    8    1        -0.5424018407E-01      0.1328572811E+00
          0                 6           1             4    7     1       0.1180093925E-04       4    8    1         0.6883117162E-03      0.1685932802E-02

    ------------------------------------------------
       NWT REQUIRED            6 OUTER ITERATIONS 
       AND A TOTAL OF         11 INNER ITERATIONS.
    ------------------------------------------------

 NO OUTPUT CONTROL FOR STRESS PERIOD    6   TIME STEP   18
 
 SOLVING FOR HEAD 
                                                   Max.-Head-Change                         Max.-Flux-Residual
  Residual-Control   Outer-Iter.   Inner-Iter.     Column Row Layer    Maximum-Head-Change  Column Row Layer    Maximum-Flux-Residual          L2-NORM 
          0                 1           2             2    2     1       0.4600011005E-02       2   13    1         0.2552883567E+00      0.6954388206E+00
          0                 2           2             2    2     1      -0.4474563505E-03       4   13    1        -0.2464091503E-01      0.6862375125E-01
          0                 3           2             4    7     1      -0.2307001227E-01       4    8    1        -0.1239050657E+01      0.3048778825E+01
          0                 4           2             4    7     1       0.2401760187E-01       4    8    1         0.1325945931E+01      0.3247932108E+01
          0                 5           2             4    7     1      -0.9559246408E-03       4    8    1        -0.5424742554E-01      0.1328750186E+00
          0                 6           1             4    7     1       0.1180251397E-04       4    8    1         0.6884035668E-03      0.1686156692E-02

    ------------------------------------------------
       NWT REQUIRED            6 OUTER ITERATIONS 
       AND A TOTAL OF         11 INNER ITERATIONS.
    ------------------------------------------------

 NO OUTPUT CONTROL FOR STRESS PERIOD    6   TIME STEP   19
 
 SOLVING FOR HEAD 
                                                   Max.-Head-Change                         Max.-Flux-Residual
  Residual-Control   Outer-Iter.   Inner-Iter.     Column Row Layer    Maximum-Head-Change  Column Row Layer    Maximum-Flux-Residual          L2-NORM 
          0                 1           2             2    2     1       0.4577393883E-02       2   13    1         0.2482043505E+00      0.6861148420E+00
          0                 2           2             2    2     1      -0.4452563102E-03       4   13    1        -0.2400677962E-01      0.6772754306E-01
          0                 3           2             4    7     1      -0.2307293189E-01       4    8    1        -0.1239207452E+01      0.3049158581E+01
          0                 4           2             4    7     1       0.2402065299E-01       4    8    1         0.1326114384E+01      0.3248344694E+01
          0                 5           2             4    7     1      -0.9560460790E-03       4    8    1        -0.5425431747E-01      0.1328918948E+00
          0                 6           1             4    7     1       0.1180401229E-04       4    8    1         0.6884909760E-03      0.1686369709E-02

    ------------------------------------------------
       NWT REQUIRED            6 OUTER ITERATIONS 
       AND A TOTAL OF         11 INNER ITERATIONS.
    ------------------------------------------------

 NO OUTPUT CONTROL FOR STRESS PERIOD    6   TIME STEP   20
 
 SOLVING FOR HEAD 
                                                   Max.-Head-Change                         Max.-Flux-Residual
  Residual-Control   Outer-Iter.   Inner-Iter.     Column Row Layer    Maximum-Head-Change  Column Row Layer    Maximum-Flux-Residual          L2-NORM 
          0                 1           2             2    2     1       0.4555072898E-02       2   13    1         0.2416499073E+00      0.6775254432E+00
          0                 2           2             2    2     1      -0.4430850765E-03       2    2    1        -0.2374862572E-01      0.6690112987E-01
          0                 3           2             4    7     1      -0.2307571160E-01       4    8    1        -0.1239356731E+01      0.3049520309E+01
          0                 4           2             4    7     1       0.2402355854E-01       4    8    1         0.1326274800E+01      0.3248737608E+01
          0                 5           2             4    7     1      -0.9561617235E-03       4    8    1        -0.5426088061E-01      0.1329079726E+00
          0                 6           1             4    7     1       0.1180543915E-04       4    8    1         0.6885742241E-03      0.1686589843E-02

    ------------------------------------------------
       NWT REQUIRED            6 OUTER ITERATIONS 
       AND A TOTAL OF         11 INNER ITERATIONS.
    ------------------------------------------------

 NO OUTPUT CONTROL FOR STRESS PERIOD    6   TIME STEP   21
 
 SOLVING FOR HEAD 
                                                   Max.-Head-Change                         Max.-Flux-Residual
  Residual-Control   Outer-Iter.   Inner-Iter.     Column Row Layer    Maximum-Head-Change  Column Row Layer    Maximum-Flux-Residual          L2-NORM 
          0                 1           2             2    2     1       0.4533043874E-02       2    2    1         0.2363284737E+00      0.6695867679E+00
          0                 2           2             2    2     1      -0.4409422431E-03       2    2    1        -0.2363289286E-01      0.6613758511E-01
          0                 3           2             4    7     1      -0.2307836030E-01       4    8    1        -0.1239498976E+01      0.3049865730E+01
          0                 4           2             4    7     1       0.2402632777E-01       4    8    1         0.1326427690E+01      0.3249112115E+01
          0                 5           2             4    7     1      -0.9562719421E-03       4    8    1        -0.5426713584E-01      0.1329232907E+00
          0                 6           1             4    7     1       0.1180679925E-04       4    8    1         0.6886535434E-03      0.1686768205E-02

    ------------------------------------------------
       NWT REQUIRED            6 OUTER ITERATIONS 
       AND A TOTAL OF         11 INNER ITERATIONS.
    ------------------------------------------------

 NO OUTPUT CONTROL FOR STRESS PERIOD    6   TIME STEP   22
 
 SOLVING FOR HEAD 
                                                   Max.-Head-Change                         Max.-Flux-Residual
  Residual-Control   Outer-Iter.   Inner-Iter.     Column Row Layer    Maximum-Head-Change  Column Row Layer    Maximum-Flux-Residual          L2-NORM 
          0                 1           2             2    2     1       0.4511301943E-02       2    2    1         0.2351862897E+00      0.6622449662E+00
          0                 2           2             2    2     1      -0.4388273362E-03       2    2    1        -0.2351867379E-01      0.6543091860E-01
          0                 3           2             4    7     1      -0.2308088722E-01       4    8    1        -0.1239634782E+01      0.3050194705E+01
          0                 4           2             4    7     1       0.2402897212E-01       4    8    1         0.1326573692E+01      0.3249469701E+01
          0                 5           2             4    7     1      -0.9563771900E-03       4    8    1        -0.5427310926E-01      0.1329379211E+00
          0                 6           1             4    7     1       0.1180809819E-04       4    8    1         0.6887293182E-03      0.1686951843E-02

    ------------------------------------------------
       NWT REQUIRED            6 OUTER ITERATIONS 
       AND A TOTAL OF         11 INNER ITERATIONS.
    ------------------------------------------------

 NO OUTPUT CONTROL FOR STRESS PERIOD    6   TIME STEP   23
 
 SOLVING FOR HEAD 
                                                   Max.-Head-Change                         Max.-Flux-Residual
  Residual-Control   Outer-Iter.   Inner-Iter.     Column Row Layer    Maximum-Head-Change  Column Row Layer    Maximum-Flux-Residual          L2-NORM 
          0                 1           2             2    2     1       0.4489843068E-02       2    2    1         0.2340589912E+00      0.6554436292E+00
          0                 2           2             2    2     1      -0.4367399627E-03       2    2    1        -0.2340594329E-01      0.6477664887E-01
          0                 3           2             4    7     1      -0.2308330283E-01       4    8    1        -0.1239764460E+01      0.3050509471E+01
          0                 4           2             4    7     1       0.2403149875E-01       4    8    1         0.1326713185E+01      0.3249811386E+01
          0                 5           2             4    7     1      -0.9564777526E-03       4    8    1        -0.5427881639E-01      0.1329518918E+00
          0                 6           1             4    7     1       0.1180933910E-04       4    8    1         0.6888017019E-03      0.1687124059E-02

    ------------------------------------------------
       NWT REQUIRED            6 OUTER ITERATIONS 
       AND A TOTAL OF         11 INNER ITERATIONS.
    ------------------------------------------------

 NO OUTPUT CONTROL FOR STRESS PERIOD    6   TIME STEP   24
 
 SOLVING FOR HEAD 
                                                   Max.-Head-Change                         Max.-Flux-Residual
  Residual-Control   Outer-Iter.   Inner-Iter.     Column Row Layer    Maximum-Head-Change  Column Row Layer    Maximum-Flux-Residual          L2-NORM 
          0                 1           2             2    2     1       0.4468578202E-02       2    2    1         0.2329419221E+00      0.6491332462E+00
          0                 2           2             2    2     1      -0.4346714621E-03       2    2    1        -0.2329423576E-01      0.6416852094E-01
          0                 3           2             4    7     1      -0.2308561190E-01       4    8    1        -0.1239888465E+01      0.3050810787E+01
          0                 4           2             4    7     1       0.2403391447E-01       4    8    1         0.1326846560E+01      0.3250138088E+01
          0                 5           2             4    7     1      -0.9565739014E-03       4    8    1        -0.5428427316E-01      0.1329652655E+00
          0                 6           1             4    7     1       0.1181052535E-04       4    8    1         0.6888708938E-03      0.1687300672E-02

    ------------------------------------------------
       NWT REQUIRED            6 OUTER ITERATIONS 
       AND A TOTAL OF         11 INNER ITERATIONS.
    ------------------------------------------------

 NO OUTPUT CONTROL FOR STRESS PERIOD    6   TIME STEP   25
 
 SOLVING FOR HEAD 
                                                   Max.-Head-Change                         Max.-Flux-Residual
  Residual-Control   Outer-Iter.   Inner-Iter.     Column Row Layer    Maximum-Head-Change  Column Row Layer    Maximum-Flux-Residual          L2-NORM 
          0                 1           2             2    2     1       0.4447588419E-02       2    2    1         0.2318393589E+00      0.6432684958E+00
          0                 2           2             2    2     1      -0.4326297188E-03       2    2    1        -0.2318397881E-01      0.6360244057E-01
          0                 3           2             4    7     1      -0.2308782148E-01       4    8    1        -0.1240007226E+01      0.3051099438E+01
          0                 4           2             4    7     1       0.2403622842E-01       4    8    1         0.1326974321E+01      0.3250451043E+01
          0                 5           2             4    7     1      -0.9566659992E-03       4    8    1        -0.5428950033E-01      0.1329780642E+00
          0                 6           1             4    7     1       0.1181166141E-04       4    8    1         0.6889371823E-03      0.1687460326E-02

    ------------------------------------------------
       NWT REQUIRED            6 OUTER ITERATIONS 
       AND A TOTAL OF         11 INNER ITERATIONS.
    ------------------------------------------------

 NO OUTPUT CONTROL FOR STRESS PERIOD    6   TIME STEP   26
 
 SOLVING FOR HEAD 
                                                   Max.-Head-Change                         Max.-Flux-Residual
  Residual-Control   Outer-Iter.   Inner-Iter.     Column Row Layer    Maximum-Head-Change  Column Row Layer    Maximum-Flux-Residual          L2-NORM 
          0                 1           2             2    2     1       0.4426869918E-02       2    2    1         0.2307510586E+00      0.6378109404E+00
          0                 2           2             2    2     1      -0.4306143644E-03       2    2    1        -0.2307514816E-01      0.6307755157E-01
          0                 3           2             4    7     1      -0.2308994198E-01       4    8    1        -0.1240121054E+01      0.3051376192E+01
          0                 4           2             4    7     1       0.2403844776E-01       4    8    1         0.1327096850E+01      0.3250751196E+01
          0                 5           2             4    7     1      -0.9567543310E-03       4    8    1        -0.5429451338E-01      0.1329903471E+00
          0                 6           1             4    7     1       0.1181275155E-04       4    8    1         0.6890007685E-03      0.1687621446E-02

    ------------------------------------------------
       NWT REQUIRED            6 OUTER ITERATIONS 
       AND A TOTAL OF         11 INNER ITERATIONS.
    ------------------------------------------------

 NO OUTPUT CONTROL FOR STRESS PERIOD    6   TIME STEP   27
 
 SOLVING FOR HEAD 
                                                   Max.-Head-Change                         Max.-Flux-Residual
  Residual-Control   Outer-Iter.   Inner-Iter.     Column Row Layer    Maximum-Head-Change  Column Row Layer    Maximum-Flux-Residual          L2-NORM 
          0                 1           2             2    2     1       0.4406418542E-02       2    2    1         0.2296768240E+00      0.6327214939E+00
          0                 2           2             2    2     1      -0.4286249943E-03       2    2    1        -0.2296772410E-01      0.6258499135E-01
          0                 3           2             4    7     1      -0.2309197373E-01       4    8    1        -0.1240230166E+01      0.3051641612E+01
          0                 4           2             4    7     1       0.2404057468E-01       4    8    1         0.1327214281E+01      0.3251038854E+01
          0                 5           2             4    7     1      -0.9568389856E-03       4    8    1        -0.5429931784E-01      0.1330021193E+00
          0                 6           1             4    7     1       0.1181379621E-04       4    8    1         0.6890617101E-03      0.1687769830E-02

    ------------------------------------------------
       NWT REQUIRED            6 OUTER ITERATIONS 
       AND A TOTAL OF         11 INNER ITERATIONS.
    ------------------------------------------------

 NO OUTPUT CONTROL FOR STRESS PERIOD    6   TIME STEP   28
 
 SOLVING FOR HEAD 
                                                   Max.-Head-Change                         Max.-Flux-Residual
  Residual-Control   Outer-Iter.   Inner-Iter.     Column Row Layer    Maximum-Head-Change  Column Row Layer    Maximum-Flux-Residual          L2-NORM 
          0                 1           2             2    2     1       0.4386230226E-02       2    2    1         0.2286164395E+00      0.6279800682E+00
          0                 2           2             2    2     1      -0.4266612128E-03       2    2    1        -0.2286168507E-01      0.6212807537E-01
          0                 3           2             4    7     1      -0.2309392381E-01       4    8    1        -0.1240334989E+01      0.3051896490E+01
          0                 4           2             4    7     1       0.2404261831E-01       4    8    1         0.1327327119E+01      0.3251315252E+01
          0                 5           2             4    7     1      -0.9569203247E-03       4    8    1        -0.5430393444E-01      0.1330134249E+00
          0                 6           1             4    7     1       0.1181480010E-04       4    8    1         0.6891202740E-03      0.1687915444E-02

    ------------------------------------------------
       NWT REQUIRED            6 OUTER ITERATIONS 
       AND A TOTAL OF         11 INNER ITERATIONS.
    ------------------------------------------------

 NO OUTPUT CONTROL FOR STRESS PERIOD    6   TIME STEP   29
 
 SOLVING FOR HEAD 
                                                   Max.-Head-Change                         Max.-Flux-Residual
  Residual-Control   Outer-Iter.   Inner-Iter.     Column Row Layer    Maximum-Head-Change  Column Row Layer    Maximum-Flux-Residual          L2-NORM 
          0                 1           2             2    2     1       0.4097821437E-02       2    2    1         0.2135388071E+00      0.5518024714E+00
          0                 2           2             2    2     1      -0.3986068062E-03       2    2    1        -0.2135391548E-01      0.5477206208E-01
          0                 3           2             4    7     1      -0.2309579827E-01       4    8    1        -0.1240435598E+01      0.3052108781E+01
          0                 4           2             4    7     1       0.2404458121E-01       4    8    1         0.1327435491E+01      0.3251580646E+01
          0                 5           2             4    7     1      -0.9569984498E-03       4    8    1        -0.5430836825E-01      0.1330242825E+00
          0                 6           1             4    7     1       0.1181576410E-04       4    8    1         0.6891764810E-03      0.1688053730E-02

    ------------------------------------------------
       NWT REQUIRED            6 OUTER ITERATIONS 
       AND A TOTAL OF         11 INNER ITERATIONS.
    ------------------------------------------------

 NO OUTPUT CONTROL FOR STRESS PERIOD    6   TIME STEP   30



 STREAM LISTING     PERIOD      6   STEP       30

 LAYER ROW COL. STREAM  RCH.  FLOW INTO     FLOW TO   FLOW OUT OF   OVRLND.     DIRECT     STREAM       STREAM     STREAM     STREAM   STREAMBED  STREAMBED
                SEG.NO.  NO.  STRM. RCH.    AQUIFER    STRM. RCH.    RUNOFF     PRECIP       ET          HEAD       DEPTH      WIDTH   CONDCTNC.   GRADIENT

   1    1    1     1     1    3.4633E+01  2.8494E-01   3.4348E+01  0.000E+00  0.000E+00  0.000E+00  1.09434E+03  1.289E+00  1.476E+01  6.643E-02  1.430E+00
   1    2    2     1     2    3.4348E+01  4.4115E-01   3.3907E+01  0.000E+00  0.000E+00  0.000E+00  1.08934E+03  1.286E+00  1.470E+01  1.029E-01  1.429E+00
   1    3    3     1     3    3.3907E+01  3.7610E-01   3.3531E+01  0.000E+00  0.000E+00  0.000E+00  1.08370E+03  1.283E+00  1.464E+01  8.782E-02  1.428E+00
   1    3    4     1     4    3.3531E+01  3.4622E-01   3.3185E+01  0.000E+00  0.000E+00  0.000E+00  1.07869E+03  1.280E+00  1.458E+01  8.090E-02  1.427E+00
   1    4    5     2     1    3.1185E+01  3.4119E-01   3.0843E+01  0.000E+00  0.000E+00  0.000E+00  1.07331E+03  1.374E+00  1.200E+01  7.800E-02  1.458E+00
   1    5    6     2     2    3.0843E+01  2.6198E-01   3.0581E+01  0.000E+00  0.000E+00  0.000E+00  1.06788E+03  1.366E+00  1.200E+01  6.000E-02  1.455E+00
   1    6    6     2     3    3.0581E+01  2.6156E-01   3.0320E+01  0.000E+00  0.000E+00  0.000E+00  1.06315E+03  1.359E+00  1.200E+01  6.000E-02  1.453E+00
   1    7    6     2     4    3.0320E+01  2.6113E-01   3.0059E+01  0.000E+00  0.000E+00  0.000E+00  1.05843E+03  1.352E+00  1.200E+01  6.000E-02  1.451E+00
   1    8    6     2     5    3.0059E+01  2.6071E-01   2.9798E+01  0.000E+00  0.000E+00  0.000E+00  1.05370E+03  1.345E+00  1.200E+01  6.000E-02  1.448E+00
   1    3    5     3     1    2.0000E+00  2.8252E-01   1.7175E+00  0.000E+00  0.000E+00  0.000E+00  1.07555E+03  1.909E+00  9.636E+00  7.227E-02  1.955E+00
   1    3    6     3     2    1.7175E+00  2.4905E-01   1.4684E+00  0.000E+00  0.000E+00  0.000E+00  1.07264E+03  1.727E+00  8.909E+00  6.682E-02  1.864E+00
   1    3    7     3     3    1.4684E+00  1.9718E-01   1.2712E+00  0.000E+00  0.000E+00  0.000E+00  1.06987E+03  1.555E+00  8.218E+00  5.547E-02  1.777E+00
   1    4    8     3     4    1.2712E+00  2.2567E-01   1.0456E+00  0.000E+00  0.000E+00  0.000E+00  1.06682E+03  1.364E+00  7.455E+00  6.709E-02  1.682E+00
   1    5    8     3     5    1.0456E+00  1.5790E-01   8.8768E-01  0.000E+00  0.000E+00  0.000E+00  1.06362E+03  1.164E+00  6.655E+00  4.991E-02  1.582E+00
   1    6    8     3     6    8.8768E-01  5.5980E-02   8.3170E-01  0.000E+00  0.000E+00  0.000E+00  1.06158E+03  1.036E+00  6.145E+00  1.844E-02  1.518E+00
   1    5   10     4     1    1.0000E+01  9.0919E-02   9.9091E+00  0.000E+00  0.000E+00  0.000E+00  1.07836E+03  6.368E-01  1.000E+01  2.500E-02  1.212E+00
   1    5    9     4     2    9.9091E+00  1.8158E-01   9.7275E+00  0.000E+00  0.000E+00  0.000E+00  1.07154E+03  6.315E-01  1.000E+01  5.000E-02  1.211E+00
   1    6    8     4     3    9.7275E+00  1.2689E-01   9.6006E+00  0.000E+00  0.000E+00  0.000E+00  1.06381E+03  6.256E-01  1.000E+01  3.500E-02  1.209E+00
   1    6    8     5     1    1.0432E+01  2.2686E-01   1.0205E+01  0.000E+00  0.000E+00  0.000E+00  1.05868E+03  6.790E-01  1.542E+01  6.166E-02  1.226E+00
   1    7    7     5     2    1.0205E+01  2.7894E-01   9.9265E+00  0.000E+00  0.000E+00  0.000E+00  1.05417E+03  6.732E-01  1.519E+01  7.594E-02  1.224E+00
   1    8    7     5     3    9.9265E+00  1.9221E-01   9.7343E+00  0.000E+00  0.000E+00  0.000E+00  1.04992E+03  6.676E-01  1.497E+01  5.241E-02  1.223E+00
   1    8    6     5     4    9.7343E+00  1.3577E-01   9.5985E+00  0.000E+00  0.000E+00  0.000E+00  1.04691E+03  6.637E-01  1.482E+01  3.706E-02  1.221E+00
   1    9    6     6     1    3.1953E+01  2.6467E-01   3.1688E+01  0.000E+00  0.000E+00  0.000E+00  1.04414E+03  1.411E+00  1.200E+01  6.000E-02  1.470E+00
   1   10    7     6     2    3.1688E+01  2.6425E-01   3.1424E+01  0.000E+00  0.000E+00  0.000E+00  1.03959E+03  1.404E+00  1.200E+01  6.000E-02  1.468E+00
   1   11    7     6     3    3.1424E+01  2.6383E-01   3.1160E+01  0.000E+00  0.000E+00  0.000E+00  1.03503E+03  1.397E+00  1.200E+01  6.000E-02  1.466E+00
   1   12    7     6     4    3.1160E+01  2.6340E-01   3.0897E+01  0.000E+00  0.000E+00  0.000E+00  1.03048E+03  1.390E+00  1.200E+01  6.000E-02  1.463E+00
   1   13    7     6     5    3.0897E+01  1.0359E-02   3.0887E+01  0.000E+00  0.000E+00  0.000E+00  1.02730E+03  1.386E+00  1.200E+01  2.400E-02  1.439E-01
   1   14    9     7     1    1.5000E+02  1.3677E+00   1.4863E+02  0.000E+00  0.000E+00  0.000E+00  1.03987E+03  2.288E+00  5.529E+01  5.593E-01  8.152E-01
   1   13    8     7     2    1.4863E+02  1.9156E+00   1.4672E+02  0.000E+00  0.000E+00  0.000E+00  1.03478E+03  2.279E+00  5.526E+01  6.148E-01  1.039E+00
   1   13    7     7     3    1.4672E+02  1.5776E+00   1.4514E+02  0.000E+00  0.000E+00  0.000E+00  1.02969E+03  2.270E+00  5.521E+01  5.584E-01  9.417E-01
   1   13    6     8     1    1.7603E+02  1.0370E+00   1.7499E+02  0.000E+00  0.000E+00  0.000E+00  1.02486E+03  2.988E+00  4.332E+01  4.415E-01  7.830E-01
   1   13    5     8     2    1.7499E+02  2.6046E-01   1.7473E+02  0.000E+00  0.000E+00  0.000E+00  1.01861E+03  2.984E+00  4.326E+01  4.409E-01  1.969E-01
   1   13    4     8     3    1.7473E+02 -2.2247E+00   1.7695E+02  0.000E+00  0.000E+00  0.000E+00  1.01236E+03  2.990E+00  4.335E+01  4.418E+00 -1.679E-01
   1   13    3     8     4    1.7695E+02 -3.5405E+00   1.8049E+02  0.000E+00  0.000E+00  0.000E+00  1.00613E+03  3.008E+00  4.362E+01  4.445E+00 -2.655E-01
   1   13    2     8     5    1.8049E+02 -2.5377E+00   1.8303E+02  0.000E+00  0.000E+00  0.000E+00  9.99902E+02  3.027E+00  4.389E+01  4.473E+00 -1.891E-01
   1   13    1     8     6    1.8303E+02 -1.9427E+00   1.8497E+02  0.000E+00  0.000E+00  0.000E+00  9.94916E+02  3.041E+00  4.410E+01  2.696E+00 -2.402E-01
   1    8    6     9     1    7.4436E+00  0.0000E+00   7.4436E+00  0.000E+00  0.000E+00  0.000E+00  1.08065E+03  1.898E+00  4.000E+00  0.000E+00  1.633E+00
   1    8    5     9     2    7.4436E+00  0.0000E+00   7.4436E+00  0.000E+00  0.000E+00  0.000E+00  1.08015E+03  1.898E+00  4.000E+00  0.000E+00  1.633E+00





UNSATURATED ZONE PACKAGE VOLUMETRIC BUDGET FOR  TIME STEP    30 STRESS PERIOD    6
  ------------------------------------------------------------------------------



     CUMULATIVE VOLUMES      L**3       RATES FOR THIS TIME STEP      L**3/T
     ------------------                 ------------------------

           IN:                                      IN:
           ---                                      ---
        INFILTRATION =    40878623.7028          INFILTRATION =           8.2912

          OUT:                                     OUT:
          ----                                     ----
              UZF ET =    40493063.7572                UZF ET =           8.3175
        UZF RECHARGE =       73224.0000          UZF RECHARGE =       0.0000E+00

            IN - OUT =      312335.9456              IN - OUT =      -2.6291E-02

          STORAGE:                                 STORAGE:
          --------                                 --------
      STORAGE CHANGE =      312334.8586        STORAGE CHANGE =      -2.6291E-02

 PERCENT DISCREPANCY IS DIFFERENCE BETWEEN IN-OUT MINUS CHANGE IN STORAGE
 DIVIDED BY THE AVERAGE OF IN AND OUT TIMES 100

 PERCENT DISCREPANCY =           0.00     PERCENT DISCREPANCY =          -0.00






1
  VOLUMETRIC BUDGET FOR AGRICULTURAL FIELDS AT  END OF TIME STEP   30, STRESS PERIOD   6
  ------------------------------------------------------------------------------

     CUMULATIVE VOLUMES      L**3       RATES FOR THIS TIME STEP      L**3/T
     ------------------                 ------------------------

           IN:                                      IN:
           ---                                      ---
               AG WELLS  =       76631.0938                 AG WELLS  =           0.0000
      DIVERSION SEGMENTS =    29583552.0000        DIVERSION SEGMENTS =           7.4436
       IRRIGATION PONDS  =           0.0000         IRRIGATION PONDS  =           0.0000
           GW IRRIGATION =           0.0000             GW IRRIGATION =           0.0000
           SW IRRIGATION =           0.0000             SW IRRIGATION =           0.0000
        SYSTEM LOSSES GW =           0.0000          SYSTEM LOSSES GW =           0.0000
        SYSTEM LOSSES SW =           0.0000          SYSTEM LOSSES SW =           0.0000

                TOTAL IN =    29660184.0000                  TOTAL IN =           7.4436

          OUT:                                     OUT:
          ----                                     ----
               AG WELLS  =           0.0000                 AG WELLS  =           0.0000
      DIVERSION SEGMENTS =           0.0000        DIVERSION SEGMENTS =           0.0000
       IRRIGATION PONDS  =           0.0000         IRRIGATION PONDS  =           0.0000
           GW IRRIGATION =       76631.0938             GW IRRIGATION =           0.0000
           SW IRRIGATION =    29584148.0000             SW IRRIGATION =           7.4437
        SYSTEM LOSSES GW =           0.0000          SYSTEM LOSSES GW =           0.0000
        SYSTEM LOSSES SW =           0.0000          SYSTEM LOSSES SW =           0.0000

               TOTAL OUT =    29660780.0000                 TOTAL OUT =           7.4437

                IN - OUT =        -596.0000                  IN - OUT =      -1.4877E-04

     PERCENT DISCREPANCY =          -0.00         PERCENT DISCREPANCY =          -0.00



1
  VOLUMETRIC BUDGET FOR ENTIRE MODEL AT END OF TIME STEP   30, STRESS PERIOD   6
  ------------------------------------------------------------------------------

     CUMULATIVE VOLUMES      L**3       RATES FOR THIS TIME STEP      L**3/T
     ------------------                 ------------------------

           IN:                                      IN:
           ---                                      ---
             STORAGE     =     8168720.0000               STORAGE     =           0.3855
       CONSTANT HEAD     =           0.0000         CONSTANT HEAD     =           0.0000
     HEAD DEP BOUNDS     =     3810180.0000       HEAD DEP BOUNDS     =           0.2879
      STREAM LEAKAGE     =   156236560.0000        STREAM LEAKAGE     =          12.4613
        UZF RECHARGE     =       73223.9531          UZF RECHARGE     =           0.0000
               GW ET     =           0.0000                 GW ET     =           0.0000
     SURFACE LEAKAGE     =           0.0000       SURFACE LEAKAGE     =           0.0000
           AG WELLS      =           0.0000             AG WELLS      =           0.0000

                TOTAL IN =   168288672.0000                  TOTAL IN =          13.1348

          OUT:                                     OUT:
          ----                                     ----
             STORAGE     =    29871774.0000               STORAGE     =           2.5990
       CONSTANT HEAD     =           0.0000         CONSTANT HEAD     =           0.0000
     HEAD DEP BOUNDS     =     3818298.0000       HEAD DEP BOUNDS     =           0.2902
      STREAM LEAKAGE     =   134525488.0000        STREAM LEAKAGE     =          10.2455
        UZF RECHARGE     =           0.0000          UZF RECHARGE     =           0.0000
               GW ET     =           0.0000                 GW ET     =           0.0000
     SURFACE LEAKAGE     =           0.0000       SURFACE LEAKAGE     =           0.0000
           AG WELLS      =       76631.0938             AG WELLS      =           0.0000

               TOTAL OUT =   168292176.0000                 TOTAL OUT =          13.1347

                IN - OUT =       -3504.0000                  IN - OUT =       6.4850E-05

     PERCENT DISCREPANCY =          -0.00         PERCENT DISCREPANCY =           0.00






         TIME SUMMARY AT END OF TIME STEP   30 IN STRESS PERIOD    6
                    SECONDS     MINUTES      HOURS       DAYS        YEARS
                    -----------------------------------------------------------
   TIME STEP LENGTH  87667.      1461.1      24.352      1.0147     2.77799E-03
 STRESS PERIOD TIME 2.63000E+06  43833.      730.56      30.440     8.33397E-02
         TOTAL TIME 1.32364E+07 2.20607E+05  3676.8      153.20     0.41944    
1
1
                            STRESS PERIOD NO.    7, LENGTH =   2630000.    
                            -----------------------------------------------

                              NUMBER OF TIME STEPS =    30

                               MULTIPLIER FOR DELT =     1.000

                            INITIAL TIME STEP SIZE =   87666.66    

 REUSING NON-PARAMETER GHB CELLS FROM LAST STRESS PERIOD

      2 GHB CELLS

 REUSING STREAM SEGMENT DATA FROM LAST STRESS PERIOD



            AREAL INFILTRATION RATE
 READING ON UNIT   19 WITH FORMAT: (FREE)              

            1           2           3           4           5           6           7           8           9          10
 ........................................................................................................................
   1   1.0000E-10  2.0000E-10   0.000       0.000       0.000       0.000       0.000       0.000       0.000       0.000    
   2   2.0000E-10  1.0000E-10  2.0000E-10   0.000       0.000      8.0000E-10  8.0000E-10  5.0000E-10   0.000       0.000    
   3    0.000      5.0000E-10  1.0000E-10  1.0000E-10  8.0000E-10  8.0000E-10  5.0000E-10  5.0000E-10   0.000       0.000    
   4   8.0000E-10  5.0000E-10  1.0000E-10  1.0000E-10  1.0000E-10  1.0000E-10  1.0000E-10  1.0000E-10  2.0000E-10   0.000    
   5   8.0000E-10  5.0000E-10  1.0000E-10  1.0000E-10  1.0000E-10  1.0000E-10  1.0000E-10  1.0000E-10  1.0000E-10  1.0000E-10
   6   8.0000E-10  5.0000E-10  5.0000E-10  2.0000E-10  2.0000E-10  1.0000E-10  1.0000E-10  1.0000E-10  1.0000E-10  5.0000E-10
   7   8.0000E-10  5.0000E-10  5.0000E-10  2.0000E-10  2.0000E-10  1.0000E-10  1.0000E-10  2.0000E-10  2.0000E-10   0.000    
   8    0.000      5.0000E-10  5.0000E-10  2.0000E-10  2.0000E-10  1.0000E-10  1.0000E-10  2.0000E-10  5.0000E-10   0.000    
   9    0.000      5.0000E-10  5.0000E-10  2.0000E-10  2.0000E-10  1.0000E-10  1.0000E-10  2.0000E-10  5.0000E-10   0.000    
  10    0.000      5.0000E-10  5.0000E-10  2.0000E-10  2.0000E-10  1.0000E-10  1.0000E-10  2.0000E-10  5.0000E-10  8.0000E-10
  11    0.000      1.0000E-10  1.0000E-10  1.0000E-10  1.0000E-10  1.0000E-10  1.0000E-10  2.0000E-10  5.0000E-10   0.000    
  12   1.0000E-10  1.0000E-10  1.0000E-10  1.0000E-10  1.0000E-10  1.0000E-10  1.0000E-10  1.0000E-10  2.0000E-10   0.000    
  13   1.0000E-10  1.0000E-10  2.0000E-10  2.0000E-10  2.0000E-10  2.0000E-10  2.0000E-10  1.0000E-10  1.0000E-10   0.000    
  14    0.000      2.0000E-10  5.0000E-10  5.0000E-10  5.0000E-10  5.0000E-10  5.0000E-10  2.0000E-10  1.0000E-10   0.000    
  15    0.000       0.000      8.0000E-10  8.0000E-10  8.0000E-10  8.0000E-10   0.000       0.000       0.000       0.000    

                  ET RATE =  1.500000E-07

 USING ET EXTINCTION DEPTH FROM PREVIOUS STRESS PERIOD. CURRENT PERIOD IS:       7

 USING EXTINCTION WATER CONTENT FROM PREVIOUS STRESS PERIOD. CURRENT PERIOD IS:       7

 USING AIR ENTRY PRESSURE FROM PREVIOUS STRESS PERIOD. CURRENT PERIOD IS:       7

 USING ROOT PRESSURE HEAD FROM PREVIOUS STRESS PERIOD. CURRENT PERIOD IS:       7

 USING ROOT ACTIVITY FROM PREVIOUS STRESS PERIOD. CURRENT PERIOD IS:       7

 PROCESSING AG STRESS PERIOD DATA

 READING AG STRESS PERIOD DATA

 READING IRRIGATION SEGMENT

 READING IRRIGATION WELL

 READING SUPPLEMENTAL WELL

 NO IRRPOND OR REUSING IRRPOND DATA FROM LAST STRESS PERIOD

 END PROCESSING AG STRESS PERIOD DATA OPTIONS
 
 SOLVING FOR HEAD 
                                                   Max.-Head-Change                         Max.-Flux-Residual
  Residual-Control   Outer-Iter.   Inner-Iter.     Column Row Layer    Maximum-Head-Change  Column Row Layer    Maximum-Flux-Residual          L2-NORM 
          0                 1           2             4   13     1      -0.7574483556E-02       4   13    1        -0.4341034641E+00      0.8395549359E+00
          0                 2           2             4    7     1      -0.4004839710E-01       5    6    1        -0.2152891753E+01      0.5271121019E+01
          0                 3           2             4    7     1       0.1446524767E-01       5    6    1         0.7987338466E+00      0.1956117646E+01
          0                 4           2             4    7     1      -0.5756140841E-03       4    6    1        -0.3277504702E-01      0.8005739034E-01
          0                 5           1             4    7     1       0.7097565351E-05       4    6    1         0.4153605744E-03      0.1014742918E-02

    ------------------------------------------------
       NWT REQUIRED            5 OUTER ITERATIONS 
       AND A TOTAL OF          9 INNER ITERATIONS.
    ------------------------------------------------

 NO OUTPUT CONTROL FOR STRESS PERIOD    7   TIME STEP    1
 
 SOLVING FOR HEAD 
                                                   Max.-Head-Change                         Max.-Flux-Residual
  Residual-Control   Outer-Iter.   Inner-Iter.     Column Row Layer    Maximum-Head-Change  Column Row Layer    Maximum-Flux-Residual          L2-NORM 
          0                 1           2             2    2     1       0.3669363178E-02       2    2    1         0.1911394461E+00      0.5166047533E+00
          0                 2           2             7   13     1      -0.2335777334E-02       7   13    1        -0.1295595368E+00      0.1380354354E+00
          0                 3           2             4    7     1      -0.2156476856E-01       4    7    1        -0.1158156414E+01      0.2849462891E+01
          0                 4           2             4    7     1       0.2138375903E-01       4    7    1         0.1180534466E+01      0.2891450930E+01
          0                 5           2             4    7     1      -0.2655913750E-03       4    6    1        -0.1518513568E-01      0.3748514780E-01
          0                 6           2             4    7     1      -0.1772955788E-03       5    6    1        -0.1006073558E-01      0.2602806263E-01
          0                 7           2             4    7     1      -0.1725271811E-02       4    6    1        -0.9790018953E-01      0.2418418325E+00
          0                 8           2             4    7     1       0.1739968493E-02       4    8    1         0.1014783759E+00      0.2486851577E+00
          0                 9           1             4   13     1      -0.6893666173E-04       4   13    1        -0.4291662733E-02      0.1113728564E-01

    ------------------------------------------------
       NWT REQUIRED            9 OUTER ITERATIONS 
       AND A TOTAL OF         17 INNER ITERATIONS.
    ------------------------------------------------

 NO OUTPUT CONTROL FOR STRESS PERIOD    7   TIME STEP    2
 
 SOLVING FOR HEAD 
                                                   Max.-Head-Change                         Max.-Flux-Residual
  Residual-Control   Outer-Iter.   Inner-Iter.     Column Row Layer    Maximum-Head-Change  Column Row Layer    Maximum-Flux-Residual          L2-NORM 
          0                 1           2             2    2     1       0.3654779996E-02       2    2    1         0.1903739778E+00      0.4991510681E+00
          0                 2           2             4    7     1      -0.4227020180E-01       5    6    1        -0.2275308112E+01      0.5594282508E+01
          0                 3           2             4    7     1      -0.1042099168E+00       4    6    1        -0.5597603183E+01      0.1371611361E+02
          0                 4           2             4    7     1       0.4513029189E-01       4    6    1         0.2492900631E+01      0.6105400901E+01
          0                 5           2             4    7     1      -0.1796215300E-02       4    6    1        -0.1019845806E+00      0.2497980448E+00
          0                 6           1             4    7     1       0.2216453540E-04       4    6    1         0.1293417590E-02      0.3173771674E-02

    ------------------------------------------------
       NWT REQUIRED            6 OUTER ITERATIONS 
       AND A TOTAL OF         11 INNER ITERATIONS.
    ------------------------------------------------

 NO OUTPUT CONTROL FOR STRESS PERIOD    7   TIME STEP    3
 
 SOLVING FOR HEAD 
                                                   Max.-Head-Change                         Max.-Flux-Residual
  Residual-Control   Outer-Iter.   Inner-Iter.     Column Row Layer    Maximum-Head-Change  Column Row Layer    Maximum-Flux-Residual          L2-NORM 
          0                 1           2             5    6     1       0.4722285784E-02       5    6    1         0.2565664862E+00      0.7087731647E+00
          0                 2           2             7   13     1      -0.2339893068E-02       7   13    1        -0.1297856225E+00      0.1462118181E+00
          0                 3           2             7   13     1       0.1592932984E-03       7   13    1         0.9082495399E-02      0.1021489679E-01
          0                 4           1             7   13     1      -0.6336719601E-05       7   13    1        -0.3713778422E-03      0.4166343973E-03

    ------------------------------------------------
       NWT REQUIRED            4 OUTER ITERATIONS 
       AND A TOTAL OF          7 INNER ITERATIONS.
    ------------------------------------------------

 NO OUTPUT CONTROL FOR STRESS PERIOD    7   TIME STEP    4
 
 SOLVING FOR HEAD 
                                                   Max.-Head-Change                         Max.-Flux-Residual
  Residual-Control   Outer-Iter.   Inner-Iter.     Column Row Layer    Maximum-Head-Change  Column Row Layer    Maximum-Flux-Residual          L2-NORM 
          0                 1           2             5    6     1       0.4522143709E-02       5    6    1         0.2454256484E+00      0.6726767922E+00
          0                 2           2             4    7     1      -0.2476265677E-01       5    6    1        -0.1345943347E+01      0.3296194889E+01
          0                 3           2             4    7     1       0.2483930153E-01       5    6    1         0.1371716736E+01      0.3358755869E+01
          0                 4           2             4    7     1      -0.6437483022E-02       5    6    1        -0.3651320741E+00      0.8982119891E+00
          0                 5           2             4    7     1       0.1081481434E-02       4    7    1         0.6304014351E-01      0.1687027369E+00
          0                 6           2             4    7     1       0.4440957224E-02       5    8    1         0.2588658569E+00      0.6341369937E+00
          0                 7           2             4    7     1       0.1305878542E-03       5    8    1         0.7614999954E-02      0.2012606121E-01
          0                 8           2             4    7     1      -0.3587676714E-02       4    7    1        -0.2149180788E+00      0.5295836310E+00
          0                 9           2             4    7     1       0.3278000560E-02       4    7    1         0.2017891208E+00      0.4943428893E+00
          0                10           2             4    7     1       0.2572912737E-03       5    8    1         0.1584048926E-01      0.3961812192E-01
          0                11           1             4   13     1      -0.7557252461E-04       4   13    1        -0.4700726213E-02      0.8280154812E-02

    ------------------------------------------------
       NWT REQUIRED           11 OUTER ITERATIONS 
       AND A TOTAL OF         21 INNER ITERATIONS.
    ------------------------------------------------

 OUTPUT CONTROL FOR STRESS PERIOD    7   TIME STEP    5
    PRINT BUDGET
    SAVE BUDGET
 UBDSV1 SAVING "         STORAGE" ON UNIT 102 AT TIME STEP 5, STRESS PERIOD 7
 UBDSV2 SAVING "   CONSTANT HEAD" ON UNIT 102 AT TIME STEP 5, STRESS PERIOD 7
 UBDSV1 SAVING "FLOW RIGHT FACE " ON UNIT 102 AT TIME STEP 5, STRESS PERIOD 7
 UBDSV1 SAVING "FLOW FRONT FACE " ON UNIT 102 AT TIME STEP 5, STRESS PERIOD 7

  HEAD DEP BOUNDS   PERIOD    7   STEP     5
 BOUNDARY      1   LAYER   1   ROW    13   COL     1   RATE   -0.289890    
 BOUNDARY      2   LAYER   1   ROW    14   COL     9   RATE    0.287936    



 STREAM LISTING     PERIOD      7   STEP        5

 LAYER ROW COL. STREAM  RCH.  FLOW INTO     FLOW TO   FLOW OUT OF   OVRLND.     DIRECT     STREAM       STREAM     STREAM     STREAM   STREAMBED  STREAMBED
                SEG.NO.  NO.  STRM. RCH.    AQUIFER    STRM. RCH.    RUNOFF     PRECIP       ET          HEAD       DEPTH      WIDTH   CONDCTNC.   GRADIENT

   1    1    1     1     1    3.1125E+01  2.7165E-01   3.0853E+01  0.000E+00  0.000E+00  0.000E+00  1.09431E+03  1.259E+00  1.417E+01  6.378E-02  1.420E+00
   1    2    2     1     2    3.0853E+01  4.2045E-01   3.0433E+01  0.000E+00  0.000E+00  0.000E+00  1.08931E+03  1.256E+00  1.411E+01  9.879E-02  1.419E+00
   1    3    3     1     3    3.0433E+01  3.5834E-01   3.0075E+01  0.000E+00  0.000E+00  0.000E+00  1.08367E+03  1.252E+00  1.404E+01  8.427E-02  1.417E+00
   1    3    4     1     4    3.0075E+01  3.2976E-01   2.9745E+01  0.000E+00  0.000E+00  0.000E+00  1.07866E+03  1.249E+00  1.398E+01  7.761E-02  1.416E+00
   1    4    5     2     1    2.7745E+01  3.3390E-01   2.7411E+01  0.000E+00  0.000E+00  0.000E+00  1.07321E+03  1.281E+00  1.200E+01  7.800E-02  1.427E+00
   1    5    6     2     2    2.7411E+01  2.5635E-01   2.7155E+01  0.000E+00  0.000E+00  0.000E+00  1.06778E+03  1.273E+00  1.200E+01  6.000E-02  1.424E+00
   1    6    6     2     3    2.7155E+01  2.5592E-01   2.6899E+01  0.000E+00  0.000E+00  0.000E+00  1.06306E+03  1.265E+00  1.200E+01  6.000E-02  1.422E+00
   1    7    6     2     4    2.6899E+01  2.5549E-01   2.6643E+01  0.000E+00  0.000E+00  0.000E+00  1.05833E+03  1.258E+00  1.200E+01  6.000E-02  1.419E+00
   1    8    6     2     5    2.6643E+01  2.5506E-01   2.6388E+01  0.000E+00  0.000E+00  0.000E+00  1.05361E+03  1.251E+00  1.200E+01  6.000E-02  1.417E+00
   1    3    5     3     1    2.0000E+00  2.8252E-01   1.7175E+00  0.000E+00  0.000E+00  0.000E+00  1.07555E+03  1.909E+00  9.636E+00  7.227E-02  1.955E+00
   1    3    6     3     2    1.7175E+00  2.4905E-01   1.4684E+00  0.000E+00  0.000E+00  0.000E+00  1.07264E+03  1.727E+00  8.909E+00  6.682E-02  1.864E+00
   1    3    7     3     3    1.4684E+00  1.9718E-01   1.2712E+00  0.000E+00  0.000E+00  0.000E+00  1.06987E+03  1.555E+00  8.218E+00  5.547E-02  1.777E+00
   1    4    8     3     4    1.2712E+00  2.2567E-01   1.0456E+00  0.000E+00  0.000E+00  0.000E+00  1.06682E+03  1.364E+00  7.455E+00  6.709E-02  1.682E+00
   1    5    8     3     5    1.0456E+00  1.5790E-01   8.8768E-01  0.000E+00  0.000E+00  0.000E+00  1.06362E+03  1.164E+00  6.655E+00  4.991E-02  1.582E+00
   1    6    8     3     6    8.8768E-01  5.5980E-02   8.3170E-01  0.000E+00  0.000E+00  0.000E+00  1.06158E+03  1.036E+00  6.145E+00  1.844E-02  1.518E+00
   1    5   10     4     1    1.0000E+01  9.0919E-02   9.9091E+00  0.000E+00  0.000E+00  0.000E+00  1.07836E+03  6.368E-01  1.000E+01  2.500E-02  1.212E+00
   1    5    9     4     2    9.9091E+00  1.8158E-01   9.7275E+00  0.000E+00  0.000E+00  0.000E+00  1.07154E+03  6.315E-01  1.000E+01  5.000E-02  1.211E+00
   1    6    8     4     3    9.7275E+00  1.2689E-01   9.6006E+00  0.000E+00  0.000E+00  0.000E+00  1.06381E+03  6.256E-01  1.000E+01  3.500E-02  1.209E+00
   1    6    8     5     1    1.0432E+01  2.2686E-01   1.0205E+01  0.000E+00  0.000E+00  0.000E+00  1.05868E+03  6.790E-01  1.542E+01  6.166E-02  1.226E+00
   1    7    7     5     2    1.0205E+01  2.7894E-01   9.9265E+00  0.000E+00  0.000E+00  0.000E+00  1.05417E+03  6.732E-01  1.519E+01  7.594E-02  1.224E+00
   1    8    7     5     3    9.9265E+00  1.9221E-01   9.7343E+00  0.000E+00  0.000E+00  0.000E+00  1.04992E+03  6.676E-01  1.497E+01  5.241E-02  1.223E+00
   1    8    6     5     4    9.7343E+00  1.3577E-01   9.5985E+00  0.000E+00  0.000E+00  0.000E+00  1.04691E+03  6.637E-01  1.482E+01  3.706E-02  1.221E+00
   1    9    6     6     1    2.1364E+01  2.4644E-01   2.1118E+01  0.000E+00  0.000E+00  0.000E+00  1.04383E+03  1.107E+00  1.200E+01  6.000E-02  1.369E+00
   1   10    7     6     2    2.1118E+01  2.4598E-01   2.0872E+01  0.000E+00  0.000E+00  0.000E+00  1.03928E+03  1.100E+00  1.200E+01  6.000E-02  1.367E+00
   1   11    7     6     3    2.0872E+01  2.4551E-01   2.0627E+01  0.000E+00  0.000E+00  0.000E+00  1.03473E+03  1.092E+00  1.200E+01  6.000E-02  1.364E+00
   1   12    7     6     4    2.0627E+01  2.4505E-01   2.0381E+01  0.000E+00  0.000E+00  0.000E+00  1.03018E+03  1.084E+00  1.200E+01  6.000E-02  1.361E+00
   1   13    7     6     5    2.0381E+01  3.0320E-03   2.0378E+01  0.000E+00  0.000E+00  0.000E+00  1.02699E+03  1.080E+00  1.200E+01  2.400E-02  4.211E-02
   1   14    9     7     1    1.5000E+02  1.3678E+00   1.4863E+02  0.000E+00  0.000E+00  0.000E+00  1.03987E+03  2.288E+00  5.529E+01  5.593E-01  8.152E-01
   1   13    8     7     2    1.4863E+02  1.9154E+00   1.4672E+02  0.000E+00  0.000E+00  0.000E+00  1.03478E+03  2.279E+00  5.526E+01  6.148E-01  1.039E+00
   1   13    7     7     3    1.4672E+02  1.5781E+00   1.4514E+02  0.000E+00  0.000E+00  0.000E+00  1.02969E+03  2.270E+00  5.521E+01  5.584E-01  9.420E-01
   1   13    6     8     1    1.6552E+02  9.8480E-01   1.6453E+02  0.000E+00  0.000E+00  0.000E+00  1.02479E+03  2.920E+00  4.233E+01  4.314E-01  7.610E-01
   1   13    5     8     2    1.6453E+02  2.2557E-01   1.6431E+02  0.000E+00  0.000E+00  0.000E+00  1.01854E+03  2.915E+00  4.227E+01  4.308E-01  1.745E-01
   1   13    4     8     3    1.6431E+02 -2.3919E+00   1.6670E+02  0.000E+00  0.000E+00  0.000E+00  1.01230E+03  2.923E+00  4.238E+01  4.319E+00 -1.846E-01
   1   13    3     8     4    1.6670E+02 -3.6829E+00   1.7038E+02  0.000E+00  0.000E+00  0.000E+00  1.00607E+03  2.943E+00  4.267E+01  4.348E+00 -2.823E-01
   1   13    2     8     5    1.7038E+02 -2.6926E+00   1.7307E+02  0.000E+00  0.000E+00  0.000E+00  9.99838E+02  2.963E+00  4.297E+01  4.379E+00 -2.050E-01
   1   13    1     8     6    1.7307E+02 -2.0466E+00   1.7512E+02  0.000E+00  0.000E+00  0.000E+00  9.94854E+02  2.979E+00  4.319E+01  2.641E+00 -2.583E-01
   1    8    6     9     1    1.4622E+01  0.0000E+00   1.4622E+01  0.000E+00  0.000E+00  0.000E+00  1.08160E+03  2.846E+00  4.000E+00  0.000E+00  1.949E+00
   1    8    5     9     2    1.4622E+01  0.0000E+00   1.4622E+01  0.000E+00  0.000E+00  0.000E+00  1.08110E+03  2.846E+00  4.000E+00  0.000E+00  1.949E+00



 UBDSV3 SAVING "           GW ET" ON UNIT  61 AT TIME STEP 5, STRESS PERIOD 7
 UBDSV3 SAVING "    UZF RECHARGE" ON UNIT  61 AT TIME STEP 5, STRESS PERIOD 7
 UBDSV3 SAVING " SURFACE LEAKAGE" ON UNIT  61 AT TIME STEP 5, STRESS PERIOD 7
 UBDSV3 SAVING "       HORT+DUNN" ON UNIT  61 AT TIME STEP 5, STRESS PERIOD 7
 UBDSV3 SAVING "  STORAGE CHANGE" ON UNIT  61 AT TIME STEP 5, STRESS PERIOD 7


UNSATURATED ZONE PACKAGE VOLUMETRIC BUDGET FOR  TIME STEP     5 STRESS PERIOD    7
  ------------------------------------------------------------------------------



     CUMULATIVE VOLUMES      L**3       RATES FOR THIS TIME STEP      L**3/T
     ------------------                 ------------------------

           IN:                                      IN:
           ---                                      ---
        INFILTRATION =    51839819.4232          INFILTRATION =          15.4701

          OUT:                                     OUT:
          ----                                     ----
              UZF ET =    50697704.6116                UZF ET =          23.1019
        UZF RECHARGE =       73224.0000          UZF RECHARGE =       0.0000E+00

            IN - OUT =     1068890.8116              IN - OUT =          -7.6318

          STORAGE:                                 STORAGE:
          --------                                 --------
      STORAGE CHANGE =     1069105.5854        STORAGE CHANGE =          -7.6318

 PERCENT DISCREPANCY IS DIFFERENCE BETWEEN IN-OUT MINUS CHANGE IN STORAGE
 DIVIDED BY THE AVERAGE OF IN AND OUT TIMES 100

 PERCENT DISCREPANCY =          -0.00     PERCENT DISCREPANCY =           0.00






 

            AG WELLS      PERIOD    7   STEP   5
 AG WELL      1   LAYER   1   ROW     6   COL     4   RATE   -3.517453E-02
 AG WELL      2   LAYER   1   ROW     6   COL     5   RATE   -3.517453E-02
 AG WELL      3   LAYER   1   ROW     7   COL     4   RATE   -3.517453E-02
 AG WELL      4   LAYER   1   ROW     7   COL     5   RATE   -3.517453E-02
 AG WELL      5   LAYER   1   ROW     8   COL     4   RATE   -3.517453E-02
 AG WELL      6   LAYER   1   ROW     8   COL     5   RATE   -3.517453E-02
 
 

   DIVERSION SEGMENTS     PERIOD    7   STEP   5
 SEGMENT      9   RATE     14.6223    
 
 

        SW IRRIGATION     PERIOD    7   STEP   5
 SEGMENT      9   ROW     6   COL     4   RATE     2.40192    
 SEGMENT      9   ROW     6   COL     5   RATE     2.40192    
 SEGMENT      9   ROW     7   COL     4   RATE     2.40192    
 SEGMENT      9   ROW     7   COL     5   RATE     2.40192    
 SEGMENT      9   ROW     8   COL     4   RATE     2.40192    
 SEGMENT      9   ROW     8   COL     5   RATE     2.40192    
 
 

        GW IRRIGATION     PERIOD    7   STEP   5
 AG WELL      1   ROW     6   COL     4   RATE    3.517453E-02
 AG WELL      2   ROW     6   COL     5   RATE    3.517453E-02
 AG WELL      3   ROW     7   COL     4   RATE    3.517453E-02
 AG WELL      4   ROW     7   COL     5   RATE    3.517453E-02
 AG WELL      5   ROW     8   COL     4   RATE    3.517453E-02
 AG WELL      6   ROW     8   COL     5   RATE    3.517453E-02
 
1
  VOLUMETRIC BUDGET FOR AGRICULTURAL FIELDS AT  END OF TIME STEP    5, STRESS PERIOD   7
  ------------------------------------------------------------------------------

     CUMULATIVE VOLUMES      L**3       RATES FOR THIS TIME STEP      L**3/T
     ------------------                 ------------------------

           IN:                                      IN:
           ---                                      ---
               AG WELLS  =     4014972.5000                 AG WELLS  =           0.2110
      DIVERSION SEGMENTS =    36270060.0000        DIVERSION SEGMENTS =          14.6223
       IRRIGATION PONDS  =           0.0000         IRRIGATION PONDS  =           0.0000
           GW IRRIGATION =           0.0000             GW IRRIGATION =           0.0000
           SW IRRIGATION =           0.0000             SW IRRIGATION =           0.0000
        SYSTEM LOSSES GW =           0.0000          SYSTEM LOSSES GW =           0.0000
        SYSTEM LOSSES SW =           0.0000          SYSTEM LOSSES SW =           0.0000

                TOTAL IN =    40285032.0000                  TOTAL IN =          14.8333

          OUT:                                     OUT:
          ----                                     ----
               AG WELLS  =           0.0000                 AG WELLS  =           0.0000
      DIVERSION SEGMENTS =           0.0000        DIVERSION SEGMENTS =           0.0000
       IRRIGATION PONDS  =           0.0000         IRRIGATION PONDS  =           0.0000
           GW IRRIGATION =     4014972.5000             GW IRRIGATION =           0.2110
           SW IRRIGATION =    36270792.0000             SW IRRIGATION =          14.6226
        SYSTEM LOSSES GW =           0.0000          SYSTEM LOSSES GW =           0.0000
        SYSTEM LOSSES SW =           0.0000          SYSTEM LOSSES SW =           0.0000

               TOTAL OUT =    40285764.0000                 TOTAL OUT =          14.8336

                IN - OUT =        -732.0000                  IN - OUT =      -2.9182E-04

     PERCENT DISCREPANCY =          -0.00         PERCENT DISCREPANCY =          -0.00



1
  VOLUMETRIC BUDGET FOR ENTIRE MODEL AT END OF TIME STEP    5, STRESS PERIOD   7
  ------------------------------------------------------------------------------

     CUMULATIVE VOLUMES      L**3       RATES FOR THIS TIME STEP      L**3/T
     ------------------                 ------------------------

           IN:                                      IN:
           ---                                      ---
             STORAGE     =    12591306.0000               STORAGE     =           1.3361
       CONSTANT HEAD     =           0.0000         CONSTANT HEAD     =           0.0000
     HEAD DEP BOUNDS     =     3936391.0000       HEAD DEP BOUNDS     =           0.2879
      STREAM LEAKAGE     =   161575120.0000        STREAM LEAKAGE     =          12.1961
        UZF RECHARGE     =       73223.9531          UZF RECHARGE     =           0.0000
               GW ET     =           0.0000                 GW ET     =           0.0000
     SURFACE LEAKAGE     =           0.0000       SURFACE LEAKAGE     =           0.0000
           AG WELLS      =           0.0000             AG WELLS      =           0.0000

                TOTAL IN =   178176032.0000                  TOTAL IN =          13.8201

          OUT:                                     OUT:
          ----                                     ----
             STORAGE     =    30902366.0000               STORAGE     =           2.5045
       CONSTANT HEAD     =           0.0000         CONSTANT HEAD     =           0.0000
     HEAD DEP BOUNDS     =     3945397.0000       HEAD DEP BOUNDS     =           0.2899
      STREAM LEAKAGE     =   139316720.0000        STREAM LEAKAGE     =          10.8141
        UZF RECHARGE     =           0.0000          UZF RECHARGE     =           0.0000
               GW ET     =           0.0000                 GW ET     =           0.0000
     SURFACE LEAKAGE     =           0.0000       SURFACE LEAKAGE     =           0.0000
           AG WELLS      =     4014972.5000             AG WELLS      =           0.2110

               TOTAL OUT =   178179456.0000                 TOTAL OUT =          13.8195

                IN - OUT =       -3424.0000                  IN - OUT =       5.3024E-04

     PERCENT DISCREPANCY =          -0.00         PERCENT DISCREPANCY =           0.00






         TIME SUMMARY AT END OF TIME STEP    5 IN STRESS PERIOD    7
                    SECONDS     MINUTES      HOURS       DAYS        YEARS
                    -----------------------------------------------------------
   TIME STEP LENGTH  87667.      1461.1      24.352      1.0147     2.77799E-03
 STRESS PERIOD TIME 4.38333E+05  7305.6      121.76      5.0733     1.38899E-02
         TOTAL TIME 1.36747E+07 2.27912E+05  3798.5      158.27     0.43333    
1
 
 SOLVING FOR HEAD 
                                                   Max.-Head-Change                         Max.-Flux-Residual
  Residual-Control   Outer-Iter.   Inner-Iter.     Column Row Layer    Maximum-Head-Change  Column Row Layer    Maximum-Flux-Residual          L2-NORM 
          0                 1           2             5    6     1       0.4353307160E-02       5    6    1         0.2360217444E+00      0.6666404999E+00
          0                 2           2             4    7     1      -0.2451655693E-01       5    6    1        -0.1331507749E+01      0.3262186931E+01
          0                 3           2             4    7     1      -0.1865147016E-01       4    7    1        -0.1001154844E+01      0.2508433542E+01
          0                 4           2             4    7     1       0.4478808009E-01       4    7    1         0.2471244832E+01      0.6053357501E+01
          0                 5           2             4    7     1      -0.1782595086E-02       4    7    1        -0.1010960305E+00      0.2476227229E+00
          0                 6           1             4    7     1       0.2199646790E-04       4    7    1         0.1281963560E-02      0.3146523384E-02

    ------------------------------------------------
       NWT REQUIRED            6 OUTER ITERATIONS 
       AND A TOTAL OF         11 INNER ITERATIONS.
    ------------------------------------------------

 NO OUTPUT CONTROL FOR STRESS PERIOD    7   TIME STEP    6
 
 SOLVING FOR HEAD 
                                                   Max.-Head-Change                         Max.-Flux-Residual
  Residual-Control   Outer-Iter.   Inner-Iter.     Column Row Layer    Maximum-Head-Change  Column Row Layer    Maximum-Flux-Residual          L2-NORM 
          0                 1           2             5    6     1       0.4177441985E-02       5    6    1         0.2262453667E+00      0.6914147285E+00
          0                 2           2             7   13     1      -0.2336580933E-02       7   13    1        -0.1295999009E+00      0.1450167704E+00
          0                 3           2             4    7     1      -0.6975274742E-01       4    7    1        -0.3744055732E+01      0.9211137923E+01
          0                 4           2             4    7     1       0.7261687557E-01       4    7    1         0.4006740560E+01      0.9814655585E+01
          0                 5           2             4    7     1      -0.2890212424E-02       5    8    1        -0.1639731208E+00      0.4016263810E+00
          0                 6           1             4    7     1       0.3566397548E-04       5    8    1         0.2080160366E-02      0.5097240581E-02

    ------------------------------------------------
       NWT REQUIRED            6 OUTER ITERATIONS 
       AND A TOTAL OF         11 INNER ITERATIONS.
    ------------------------------------------------

 NO OUTPUT CONTROL FOR STRESS PERIOD    7   TIME STEP    7
 
 SOLVING FOR HEAD 
                                                   Max.-Head-Change                         Max.-Flux-Residual
  Residual-Control   Outer-Iter.   Inner-Iter.     Column Row Layer    Maximum-Head-Change  Column Row Layer    Maximum-Flux-Residual          L2-NORM 
          0                 1           2             4   13     1       0.4054214654E-02       4   13    1         0.2327629115E+00      0.7021939415E+00
          0                 2           2             7   13     1      -0.2338426120E-02       7   13    1        -0.1297005032E+00      0.1454324545E+00
          0                 3           2             4    7     1      -0.6975248591E-01       4    7    1        -0.3744039735E+01      0.9211320366E+01
          0                 4           2             4    7     1       0.7261688196E-01       4    7    1         0.4006740392E+01      0.9814663284E+01
          0                 5           2             4    7     1      -0.2890212678E-02       5    8    1        -0.1639733549E+00      0.4016263258E+00
          0                 6           1             4    7     1       0.3566397884E-04       5    8    1         0.2080163323E-02      0.5095953647E-02

    ------------------------------------------------
       NWT REQUIRED            6 OUTER ITERATIONS 
       AND A TOTAL OF         11 INNER ITERATIONS.
    ------------------------------------------------

 NO OUTPUT CONTROL FOR STRESS PERIOD    7   TIME STEP    8
 
 SOLVING FOR HEAD 
                                                   Max.-Head-Change                         Max.-Flux-Residual
  Residual-Control   Outer-Iter.   Inner-Iter.     Column Row Layer    Maximum-Head-Change  Column Row Layer    Maximum-Flux-Residual          L2-NORM 
          0                 1           2             4   13     1       0.4503848997E-02       4   13    1         0.2586946632E+00      0.7144491878E+00
          0                 2           2             7   13     1      -0.2340264829E-02       7   13    1        -0.1298008717E+00      0.1459348266E+00
          0                 3           2             4    7     1      -0.6975225794E-01       4    7    1        -0.3744025662E+01      0.9211492527E+01
          0                 4           2             4    7     1       0.7261689436E-01       4    7    1         0.4006740598E+01      0.9814671383E+01
          0                 5           2             4    7     1      -0.2890213172E-02       5    8    1        -0.1639735866E+00      0.4016266324E+00
          0                 6           1             4    7     1       0.3566398489E-04       5    8    1         0.2080166256E-02      0.5095953289E-02

    ------------------------------------------------
       NWT REQUIRED            6 OUTER ITERATIONS 
       AND A TOTAL OF         11 INNER ITERATIONS.
    ------------------------------------------------

 NO OUTPUT CONTROL FOR STRESS PERIOD    7   TIME STEP    9
 
 SOLVING FOR HEAD 
                                                   Max.-Head-Change                         Max.-Flux-Residual
  Residual-Control   Outer-Iter.   Inner-Iter.     Column Row Layer    Maximum-Head-Change  Column Row Layer    Maximum-Flux-Residual          L2-NORM 
          0                 1           2             4   13     1       0.4910585186E-02       4   13    1         0.2821445834E+00      0.7276087780E+00
          0                 2           2             7   13     1      -0.2342078026E-02       7   13    1        -0.1298999009E+00      0.1464983515E+00
          0                 3           2             4    7     1      -0.6975205195E-01       4    7    1        -0.3744012883E+01      0.9211653037E+01
          0                 4           2             4    7     1       0.7261690338E-01       4    7    1         0.4006740656E+01      0.9814678602E+01
          0                 5           2             4    7     1      -0.2890213530E-02       5    8    1        -0.1639737961E+00      0.4016269082E+00
          0                 6           1             4    7     1       0.3566398948E-04       5    8    1         0.2080168899E-02      0.5095947761E-02

    ------------------------------------------------
       NWT REQUIRED            6 OUTER ITERATIONS 
       AND A TOTAL OF         11 INNER ITERATIONS.
    ------------------------------------------------

 OUTPUT CONTROL FOR STRESS PERIOD    7   TIME STEP   10
    PRINT BUDGET
    SAVE BUDGET
 UBDSV1 SAVING "         STORAGE" ON UNIT 102 AT TIME STEP 10, STRESS PERIOD 7
 UBDSV2 SAVING "   CONSTANT HEAD" ON UNIT 102 AT TIME STEP 10, STRESS PERIOD 7
 UBDSV1 SAVING "FLOW RIGHT FACE " ON UNIT 102 AT TIME STEP 10, STRESS PERIOD 7
 UBDSV1 SAVING "FLOW FRONT FACE " ON UNIT 102 AT TIME STEP 10, STRESS PERIOD 7

  HEAD DEP BOUNDS   PERIOD    7   STEP    10
 BOUNDARY      1   LAYER   1   ROW    13   COL     1   RATE   -0.289381    
 BOUNDARY      2   LAYER   1   ROW    14   COL     9   RATE    0.287939    



 STREAM LISTING     PERIOD      7   STEP       10

 LAYER ROW COL. STREAM  RCH.  FLOW INTO     FLOW TO   FLOW OUT OF   OVRLND.     DIRECT     STREAM       STREAM     STREAM     STREAM   STREAMBED  STREAMBED
                SEG.NO.  NO.  STRM. RCH.    AQUIFER    STRM. RCH.    RUNOFF     PRECIP       ET          HEAD       DEPTH      WIDTH   CONDCTNC.   GRADIENT

   1    1    1     1     1    3.1125E+01  2.7165E-01   3.0853E+01  0.000E+00  0.000E+00  0.000E+00  1.09431E+03  1.259E+00  1.417E+01  6.378E-02  1.420E+00
   1    2    2     1     2    3.0853E+01  4.2045E-01   3.0433E+01  0.000E+00  0.000E+00  0.000E+00  1.08931E+03  1.256E+00  1.411E+01  9.879E-02  1.419E+00
   1    3    3     1     3    3.0433E+01  3.5834E-01   3.0075E+01  0.000E+00  0.000E+00  0.000E+00  1.08367E+03  1.252E+00  1.404E+01  8.427E-02  1.417E+00
   1    3    4     1     4    3.0075E+01  3.2976E-01   2.9745E+01  0.000E+00  0.000E+00  0.000E+00  1.07866E+03  1.249E+00  1.398E+01  7.761E-02  1.416E+00
   1    4    5     2     1    2.7745E+01  3.3390E-01   2.7411E+01  0.000E+00  0.000E+00  0.000E+00  1.07321E+03  1.281E+00  1.200E+01  7.800E-02  1.427E+00
   1    5    6     2     2    2.7411E+01  2.5635E-01   2.7155E+01  0.000E+00  0.000E+00  0.000E+00  1.06778E+03  1.273E+00  1.200E+01  6.000E-02  1.424E+00
   1    6    6     2     3    2.7155E+01  2.5592E-01   2.6899E+01  0.000E+00  0.000E+00  0.000E+00  1.06306E+03  1.265E+00  1.200E+01  6.000E-02  1.422E+00
   1    7    6     2     4    2.6899E+01  2.5549E-01   2.6643E+01  0.000E+00  0.000E+00  0.000E+00  1.05833E+03  1.258E+00  1.200E+01  6.000E-02  1.419E+00
   1    8    6     2     5    2.6643E+01  2.5506E-01   2.6388E+01  0.000E+00  0.000E+00  0.000E+00  1.05361E+03  1.251E+00  1.200E+01  6.000E-02  1.417E+00
   1    3    5     3     1    2.0000E+00  2.8252E-01   1.7175E+00  0.000E+00  0.000E+00  0.000E+00  1.07555E+03  1.909E+00  9.636E+00  7.227E-02  1.955E+00
   1    3    6     3     2    1.7175E+00  2.4905E-01   1.4684E+00  0.000E+00  0.000E+00  0.000E+00  1.07264E+03  1.727E+00  8.909E+00  6.682E-02  1.864E+00
   1    3    7     3     3    1.4684E+00  1.9718E-01   1.2712E+00  0.000E+00  0.000E+00  0.000E+00  1.06987E+03  1.555E+00  8.218E+00  5.547E-02  1.777E+00
   1    4    8     3     4    1.2712E+00  2.2567E-01   1.0456E+00  0.000E+00  0.000E+00  0.000E+00  1.06682E+03  1.364E+00  7.455E+00  6.709E-02  1.682E+00
   1    5    8     3     5    1.0456E+00  1.5790E-01   8.8768E-01  0.000E+00  0.000E+00  0.000E+00  1.06362E+03  1.164E+00  6.655E+00  4.991E-02  1.582E+00
   1    6    8     3     6    8.8768E-01  5.5980E-02   8.3170E-01  0.000E+00  0.000E+00  0.000E+00  1.06158E+03  1.036E+00  6.145E+00  1.844E-02  1.518E+00
   1    5   10     4     1    1.0000E+01  9.0919E-02   9.9091E+00  0.000E+00  0.000E+00  0.000E+00  1.07836E+03  6.368E-01  1.000E+01  2.500E-02  1.212E+00
   1    5    9     4     2    9.9091E+00  1.8158E-01   9.7275E+00  0.000E+00  0.000E+00  0.000E+00  1.07154E+03  6.315E-01  1.000E+01  5.000E-02  1.211E+00
   1    6    8     4     3    9.7275E+00  1.2689E-01   9.6006E+00  0.000E+00  0.000E+00  0.000E+00  1.06381E+03  6.256E-01  1.000E+01  3.500E-02  1.209E+00
   1    6    8     5     1    1.0432E+01  2.2686E-01   1.0205E+01  0.000E+00  0.000E+00  0.000E+00  1.05868E+03  6.790E-01  1.542E+01  6.166E-02  1.226E+00
   1    7    7     5     2    1.0205E+01  2.7894E-01   9.9265E+00  0.000E+00  0.000E+00  0.000E+00  1.05417E+03  6.732E-01  1.519E+01  7.594E-02  1.224E+00
   1    8    7     5     3    9.9265E+00  1.9221E-01   9.7343E+00  0.000E+00  0.000E+00  0.000E+00  1.04992E+03  6.676E-01  1.497E+01  5.241E-02  1.223E+00
   1    8    6     5     4    9.7343E+00  1.3577E-01   9.5985E+00  0.000E+00  0.000E+00  0.000E+00  1.04691E+03  6.637E-01  1.482E+01  3.706E-02  1.221E+00
   1    9    6     6     1    1.3519E+01  2.3040E-01   1.3289E+01  0.000E+00  0.000E+00  0.000E+00  1.04357E+03  8.401E-01  1.200E+01  6.000E-02  1.280E+00
   1   10    7     6     2    1.3289E+01  2.2988E-01   1.3059E+01  0.000E+00  0.000E+00  0.000E+00  1.03901E+03  8.314E-01  1.200E+01  6.000E-02  1.277E+00
   1   11    7     6     3    1.3059E+01  2.2936E-01   1.2829E+01  0.000E+00  0.000E+00  0.000E+00  1.03446E+03  8.226E-01  1.200E+01  6.000E-02  1.274E+00
   1   12    7     6     4    1.2829E+01  2.2883E-01   1.2601E+01  0.000E+00  0.000E+00  0.000E+00  1.02990E+03  8.139E-01  1.200E+01  6.000E-02  1.271E+00
   1   13    7     6     5    1.2601E+01 -3.4076E-02   1.2635E+01  0.000E+00  0.000E+00  0.000E+00  1.02672E+03  8.101E-01  1.200E+01  2.400E-01 -4.733E-02
   1   14    9     7     1    1.5000E+02  1.3678E+00   1.4863E+02  0.000E+00  0.000E+00  0.000E+00  1.03987E+03  2.288E+00  5.529E+01  5.593E-01  8.152E-01
   1   13    8     7     2    1.4863E+02  1.9153E+00   1.4672E+02  0.000E+00  0.000E+00  0.000E+00  1.03478E+03  2.279E+00  5.526E+01  6.148E-01  1.038E+00
   1   13    7     7     3    1.4672E+02  1.5790E+00   1.4514E+02  0.000E+00  0.000E+00  0.000E+00  1.02969E+03  2.270E+00  5.521E+01  5.584E-01  9.426E-01
   1   13    6     8     1    1.5777E+02  9.4720E-01   1.5683E+02  0.000E+00  0.000E+00  0.000E+00  1.02474E+03  2.867E+00  4.158E+01  4.237E-01  7.452E-01
   1   13    5     8     2    1.5683E+02  2.0115E-01   1.5662E+02  0.000E+00  0.000E+00  0.000E+00  1.01849E+03  2.864E+00  4.152E+01  4.231E-01  1.585E-01
   1   13    4     8     3    1.5662E+02 -2.4740E+00   1.5910E+02  0.000E+00  0.000E+00  0.000E+00  1.01225E+03  2.871E+00  4.163E+01  4.243E+00 -1.944E-01
   1   13    3     8     4    1.5910E+02 -3.7478E+00   1.6285E+02  0.000E+00  0.000E+00  0.000E+00  1.00602E+03  2.892E+00  4.194E+01  4.274E+00 -2.923E-01
   1   13    2     8     5    1.6285E+02 -2.7632E+00   1.6561E+02  0.000E+00  0.000E+00  0.000E+00  9.99789E+02  2.914E+00  4.226E+01  4.306E+00 -2.139E-01
   1   13    1     8     6    1.6561E+02 -2.1042E+00   1.6771E+02  0.000E+00  0.000E+00  0.000E+00  9.94805E+02  2.930E+00  4.249E+01  2.598E+00 -2.700E-01
   1    8    6     9     1    2.2468E+01  0.0000E+00   2.2468E+01  0.000E+00  0.000E+00  0.000E+00  1.08243E+03  3.683E+00  4.000E+00  0.000E+00  2.228E+00
   1    8    5     9     2    2.2468E+01  0.0000E+00   2.2468E+01  0.000E+00  0.000E+00  0.000E+00  1.08193E+03  3.683E+00  4.000E+00  0.000E+00  2.228E+00



 UBDSV3 SAVING "           GW ET" ON UNIT  61 AT TIME STEP 10, STRESS PERIOD 7
 UBDSV3 SAVING "    UZF RECHARGE" ON UNIT  61 AT TIME STEP 10, STRESS PERIOD 7
 UBDSV3 SAVING " SURFACE LEAKAGE" ON UNIT  61 AT TIME STEP 10, STRESS PERIOD 7
 UBDSV3 SAVING "       HORT+DUNN" ON UNIT  61 AT TIME STEP 10, STRESS PERIOD 7
 UBDSV3 SAVING "  STORAGE CHANGE" ON UNIT  61 AT TIME STEP 10, STRESS PERIOD 7


UNSATURATED ZONE PACKAGE VOLUMETRIC BUDGET FOR  TIME STEP    10 STRESS PERIOD    7
  ------------------------------------------------------------------------------



     CUMULATIVE VOLUMES      L**3       RATES FOR THIS TIME STEP      L**3/T
     ------------------                 ------------------------

           IN:                                      IN:
           ---                                      ---
        INFILTRATION =    62060050.5276          INFILTRATION =          23.3157

          OUT:                                     OUT:
          ----                                     ----
              UZF ET =    60918542.0910                UZF ET =          23.3175
        UZF RECHARGE =       73224.0000          UZF RECHARGE =       0.0000E+00

            IN - OUT =     1068284.4366              IN - OUT =      -1.8296E-03

          STORAGE:                                 STORAGE:
          --------                                 --------
      STORAGE CHANGE =     1068499.1843        STORAGE CHANGE =      -1.8311E-03

 PERCENT DISCREPANCY IS DIFFERENCE BETWEEN IN-OUT MINUS CHANGE IN STORAGE
 DIVIDED BY THE AVERAGE OF IN AND OUT TIMES 100

 PERCENT DISCREPANCY =          -0.00     PERCENT DISCREPANCY =           0.00






 

            AG WELLS      PERIOD    7   STEP  10
 AG WELL      1   LAYER   1   ROW     6   COL     4   RATE     0.00000    
 AG WELL      2   LAYER   1   ROW     6   COL     5   RATE     0.00000    
 AG WELL      3   LAYER   1   ROW     7   COL     4   RATE     0.00000    
 AG WELL      4   LAYER   1   ROW     7   COL     5   RATE     0.00000    
 AG WELL      5   LAYER   1   ROW     8   COL     4   RATE     0.00000    
 AG WELL      6   LAYER   1   ROW     8   COL     5   RATE     0.00000    
 
 

   DIVERSION SEGMENTS     PERIOD    7   STEP  10
 SEGMENT      9   RATE     22.4677    
 
 

        SW IRRIGATION     PERIOD    7   STEP  10
 SEGMENT      9   ROW     6   COL     4   RATE     3.74469    
 SEGMENT      9   ROW     6   COL     5   RATE     3.74469    
 SEGMENT      9   ROW     7   COL     4   RATE     3.74469    
 SEGMENT      9   ROW     7   COL     5   RATE     3.74469    
 SEGMENT      9   ROW     8   COL     4   RATE     3.74469    
 SEGMENT      9   ROW     8   COL     5   RATE     3.74469    
 
 

        GW IRRIGATION     PERIOD    7   STEP  10
 AG WELL      1   ROW     6   COL     4   RATE     0.00000    
 AG WELL      2   ROW     6   COL     5   RATE     0.00000    
 AG WELL      3   ROW     7   COL     4   RATE     0.00000    
 AG WELL      4   ROW     7   COL     5   RATE     0.00000    
 AG WELL      5   ROW     8   COL     4   RATE     0.00000    
 AG WELL      6   ROW     8   COL     5   RATE     0.00000    
 
1
  VOLUMETRIC BUDGET FOR AGRICULTURAL FIELDS AT  END OF TIME STEP   10, STRESS PERIOD   7
  ------------------------------------------------------------------------------

     CUMULATIVE VOLUMES      L**3       RATES FOR THIS TIME STEP      L**3/T
     ------------------                 ------------------------

           IN:                                      IN:
           ---                                      ---
               AG WELLS  =     4014972.5000                 AG WELLS  =           0.0000
      DIVERSION SEGMENTS =    46118604.0000        DIVERSION SEGMENTS =          22.4677
       IRRIGATION PONDS  =           0.0000         IRRIGATION PONDS  =           0.0000
           GW IRRIGATION =           0.0000             GW IRRIGATION =           0.0000
           SW IRRIGATION =           0.0000             SW IRRIGATION =           0.0000
        SYSTEM LOSSES GW =           0.0000          SYSTEM LOSSES GW =           0.0000
        SYSTEM LOSSES SW =           0.0000          SYSTEM LOSSES SW =           0.0000

                TOTAL IN =    50133576.0000                  TOTAL IN =          22.4677

          OUT:                                     OUT:
          ----                                     ----
               AG WELLS  =           0.0000                 AG WELLS  =           0.0000
      DIVERSION SEGMENTS =           0.0000        DIVERSION SEGMENTS =           0.0000
       IRRIGATION PONDS  =           0.0000         IRRIGATION PONDS  =           0.0000
           GW IRRIGATION =     4014972.5000             GW IRRIGATION =           0.0000
           SW IRRIGATION =    46119532.0000             SW IRRIGATION =          22.4682
        SYSTEM LOSSES GW =           0.0000          SYSTEM LOSSES GW =           0.0000
        SYSTEM LOSSES SW =           0.0000          SYSTEM LOSSES SW =           0.0000

               TOTAL OUT =    50134504.0000                 TOTAL OUT =          22.4682

                IN - OUT =        -928.0000                  IN - OUT =      -4.4823E-04

     PERCENT DISCREPANCY =          -0.00         PERCENT DISCREPANCY =          -0.00



1
  VOLUMETRIC BUDGET FOR ENTIRE MODEL AT END OF TIME STEP   10, STRESS PERIOD   7
  ------------------------------------------------------------------------------

     CUMULATIVE VOLUMES      L**3       RATES FOR THIS TIME STEP      L**3/T
     ------------------                 ------------------------

           IN:                                      IN:
           ---                                      ---
             STORAGE     =    13335845.0000               STORAGE     =           1.5050
       CONSTANT HEAD     =           0.0000         CONSTANT HEAD     =           0.0000
     HEAD DEP BOUNDS     =     4062603.7500       HEAD DEP BOUNDS     =           0.2879
      STREAM LEAKAGE     =   166863872.0000        STREAM LEAKAGE     =          12.0673
        UZF RECHARGE     =       73223.9531          UZF RECHARGE     =           0.0000
               GW ET     =           0.0000                 GW ET     =           0.0000
     SURFACE LEAKAGE     =           0.0000       SURFACE LEAKAGE     =           0.0000
           AG WELLS      =           0.0000             AG WELLS      =           0.0000

                TOTAL IN =   184335536.0000                  TOTAL IN =          13.8603

          OUT:                                     OUT:
          ----                                     ----
             STORAGE     =    32010616.0000               STORAGE     =           2.4475
       CONSTANT HEAD     =           0.0000         CONSTANT HEAD     =           0.0000
     HEAD DEP BOUNDS     =     4072328.0000       HEAD DEP BOUNDS     =           0.2894
      STREAM LEAKAGE     =   144240960.0000        STREAM LEAKAGE     =          11.1233
        UZF RECHARGE     =           0.0000          UZF RECHARGE     =           0.0000
               GW ET     =           0.0000                 GW ET     =           0.0000
     SURFACE LEAKAGE     =           0.0000       SURFACE LEAKAGE     =           0.0000
           AG WELLS      =     4014972.5000             AG WELLS      =           0.0000

               TOTAL OUT =   184338880.0000                 TOTAL OUT =          13.8601

                IN - OUT =       -3344.0000                  IN - OUT =       1.8406E-04

     PERCENT DISCREPANCY =          -0.00         PERCENT DISCREPANCY =           0.00






         TIME SUMMARY AT END OF TIME STEP   10 IN STRESS PERIOD    7
                    SECONDS     MINUTES      HOURS       DAYS        YEARS
                    -----------------------------------------------------------
   TIME STEP LENGTH  87667.      1461.1      24.352      1.0147     2.77799E-03
 STRESS PERIOD TIME 8.76667E+05  14611.      243.52      10.147     2.77799E-02
         TOTAL TIME 1.41131E+07 2.35218E+05  3920.3      163.35     0.44722    
1
 
 SOLVING FOR HEAD 
                                                   Max.-Head-Change                         Max.-Flux-Residual
  Residual-Control   Outer-Iter.   Inner-Iter.     Column Row Layer    Maximum-Head-Change  Column Row Layer    Maximum-Flux-Residual          L2-NORM 
          0                 1           2             4   13     1       0.5278595972E-02       4   13    1         0.3033545507E+00      0.7412109857E+00
          0                 2           2             7   13     1      -0.2343902558E-02       7   13    1        -0.1299996462E+00      0.1471025802E+00
          0                 3           2             4    7     1      -0.6975187952E-01       4    7    1        -0.3744002019E+01      0.9211804924E+01
          0                 4           2             4    7     1       0.7261692281E-01       4    7    1         0.4006741325E+01      0.9814677503E+01
          0                 5           2             4    7     1      -0.2890214303E-02       5    8    1        -0.1639740154E+00      0.4016142315E+00
          0                 6           1             4    7     1       0.3566399889E-04       5    8    1         0.2080171672E-02      0.5095561053E-02

    ------------------------------------------------
       NWT REQUIRED            6 OUTER ITERATIONS 
       AND A TOTAL OF         11 INNER ITERATIONS.
    ------------------------------------------------

 NO OUTPUT CONTROL FOR STRESS PERIOD    7   TIME STEP   11
 
 SOLVING FOR HEAD 
                                                   Max.-Head-Change                         Max.-Flux-Residual
  Residual-Control   Outer-Iter.   Inner-Iter.     Column Row Layer    Maximum-Head-Change  Column Row Layer    Maximum-Flux-Residual          L2-NORM 
          0                 1           2             4   13     1       0.5611664167E-02       4   13    1         0.3225442655E+00      0.7548957718E+00
          0                 2           2             7   13     1      -0.2345690087E-02       7   13    1        -0.1300974172E+00      0.1477294170E+00
          0                 3           2             4    7     1      -0.6975172316E-01       4    7    1        -0.3743992125E+01      0.9211946294E+01
          0                 4           2             4    7     1       0.7261693417E-01       4    7    1         0.4006741585E+01      0.9814684275E+01
          0                 5           2             4    7     1      -0.2890214756E-02       5    8    1        -0.1639742039E+00      0.4016144772E+00
          0                 6           1             4    7     1       0.3566400438E-04       5    8    1         0.2080174049E-02      0.5095560338E-02

    ------------------------------------------------
       NWT REQUIRED            6 OUTER ITERATIONS 
       AND A TOTAL OF         11 INNER ITERATIONS.
    ------------------------------------------------

 NO OUTPUT CONTROL FOR STRESS PERIOD    7   TIME STEP   12
 
 SOLVING FOR HEAD 
                                                   Max.-Head-Change                         Max.-Flux-Residual
  Residual-Control   Outer-Iter.   Inner-Iter.     Column Row Layer    Maximum-Head-Change  Column Row Layer    Maximum-Flux-Residual          L2-NORM 
          0                 1           2             4   13     1       0.5913162126E-02       4   13    1         0.3399088743E+00      0.7684341791E+00
          0                 2           2             7   13     1      -0.2347459750E-02       7   13    1        -0.1301942797E+00      0.1483641470E+00
          0                 3           2             4    7     1      -0.6975159181E-01       4    7    1        -0.3743983674E+01      0.9212080138E+01
          0                 4           2             4    7     1       0.7261695112E-01       5    8    1         0.4006743015E+01      0.9814682167E+01
          0                 5           2             4    7     1      -0.2890215430E-02       5    8    1        -0.1639743932E+00      0.4016017925E+00
          0                 6           1             4    7     1       0.3566401278E-04       5    8    1         0.2080176435E-02      0.5095181469E-02

    ------------------------------------------------
       NWT REQUIRED            6 OUTER ITERATIONS 
       AND A TOTAL OF         11 INNER ITERATIONS.
    ------------------------------------------------

 NO OUTPUT CONTROL FOR STRESS PERIOD    7   TIME STEP   13
 
 SOLVING FOR HEAD 
                                                   Max.-Head-Change                         Max.-Flux-Residual
  Residual-Control   Outer-Iter.   Inner-Iter.     Column Row Layer    Maximum-Head-Change  Column Row Layer    Maximum-Flux-Residual          L2-NORM 
          0                 1           2             4   13     1       0.6186431975E-02       4   13    1         0.3556421873E+00      0.7816487362E+00
          0                 2           2             7   13     1      -0.2349232725E-02       7   13    1        -0.1302913714E+00      0.1490016489E+00
          0                 3           2             4    7     1      -0.6975147794E-01       4    7    1        -0.3743976259E+01      0.9212204884E+01
          0                 4           2             4    7     1       0.7261696447E-01       5    8    1         0.4006747187E+01      0.9814688548E+01
          0                 5           2             4    7     1      -0.2890215962E-02       5    8    1        -0.1639745634E+00      0.4016020322E+00
          0                 6           1             4    7     1       0.3566401950E-04       5    8    1         0.2080178602E-02      0.5095167553E-02

    ------------------------------------------------
       NWT REQUIRED            6 OUTER ITERATIONS 
       AND A TOTAL OF         11 INNER ITERATIONS.
    ------------------------------------------------

 NO OUTPUT CONTROL FOR STRESS PERIOD    7   TIME STEP   14
 
 SOLVING FOR HEAD 
                                                   Max.-Head-Change                         Max.-Flux-Residual
  Residual-Control   Outer-Iter.   Inner-Iter.     Column Row Layer    Maximum-Head-Change  Column Row Layer    Maximum-Flux-Residual          L2-NORM 
          0                 1           2             4   13     1       0.6433942772E-02       4   13    1         0.3698871270E+00      0.7944087987E+00
          0                 2           2             7   13     1      -0.2350961834E-02       7   13    1        -0.1303861034E+00      0.1496295193E+00
          0                 3           2             4    7     1      -0.6975138710E-01       4    7    1        -0.3743970173E+01      0.9212322868E+01
          0                 4           2             4    7     1       0.7261698332E-01       5    8    1         0.4006751416E+01      0.9814685838E+01
          0                 5           2             4    7     1      -0.2890216713E-02       5    8    1        -0.1639747360E+00      0.4015888448E+00
          0                 6           1             4    7     1       0.3566402869E-04       5    8    1         0.2080180775E-02      0.5094758131E-02

    ------------------------------------------------
       NWT REQUIRED            6 OUTER ITERATIONS 
       AND A TOTAL OF         11 INNER ITERATIONS.
    ------------------------------------------------

 OUTPUT CONTROL FOR STRESS PERIOD    7   TIME STEP   15
    PRINT BUDGET
    SAVE BUDGET
 UBDSV1 SAVING "         STORAGE" ON UNIT 102 AT TIME STEP 15, STRESS PERIOD 7
 UBDSV2 SAVING "   CONSTANT HEAD" ON UNIT 102 AT TIME STEP 15, STRESS PERIOD 7
 UBDSV1 SAVING "FLOW RIGHT FACE " ON UNIT 102 AT TIME STEP 15, STRESS PERIOD 7
 UBDSV1 SAVING "FLOW FRONT FACE " ON UNIT 102 AT TIME STEP 15, STRESS PERIOD 7

  HEAD DEP BOUNDS   PERIOD    7   STEP    15
 BOUNDARY      1   LAYER   1   ROW    13   COL     1   RATE   -0.288961    
 BOUNDARY      2   LAYER   1   ROW    14   COL     9   RATE    0.287942    



 STREAM LISTING     PERIOD      7   STEP       15

 LAYER ROW COL. STREAM  RCH.  FLOW INTO     FLOW TO   FLOW OUT OF   OVRLND.     DIRECT     STREAM       STREAM     STREAM     STREAM   STREAMBED  STREAMBED
                SEG.NO.  NO.  STRM. RCH.    AQUIFER    STRM. RCH.    RUNOFF     PRECIP       ET          HEAD       DEPTH      WIDTH   CONDCTNC.   GRADIENT

   1    1    1     1     1    3.1125E+01  2.7165E-01   3.0853E+01  0.000E+00  0.000E+00  0.000E+00  1.09431E+03  1.259E+00  1.417E+01  6.378E-02  1.420E+00
   1    2    2     1     2    3.0853E+01  4.2045E-01   3.0433E+01  0.000E+00  0.000E+00  0.000E+00  1.08931E+03  1.256E+00  1.411E+01  9.879E-02  1.419E+00
   1    3    3     1     3    3.0433E+01  3.5834E-01   3.0075E+01  0.000E+00  0.000E+00  0.000E+00  1.08367E+03  1.252E+00  1.404E+01  8.427E-02  1.417E+00
   1    3    4     1     4    3.0075E+01  3.2976E-01   2.9745E+01  0.000E+00  0.000E+00  0.000E+00  1.07866E+03  1.249E+00  1.398E+01  7.761E-02  1.416E+00
   1    4    5     2     1    2.7745E+01  3.3390E-01   2.7411E+01  0.000E+00  0.000E+00  0.000E+00  1.07321E+03  1.281E+00  1.200E+01  7.800E-02  1.427E+00
   1    5    6     2     2    2.7411E+01  2.5635E-01   2.7155E+01  0.000E+00  0.000E+00  0.000E+00  1.06778E+03  1.273E+00  1.200E+01  6.000E-02  1.424E+00
   1    6    6     2     3    2.7155E+01  2.5592E-01   2.6899E+01  0.000E+00  0.000E+00  0.000E+00  1.06306E+03  1.265E+00  1.200E+01  6.000E-02  1.422E+00
   1    7    6     2     4    2.6899E+01  2.5549E-01   2.6643E+01  0.000E+00  0.000E+00  0.000E+00  1.05833E+03  1.258E+00  1.200E+01  6.000E-02  1.419E+00
   1    8    6     2     5    2.6643E+01  2.5506E-01   2.6388E+01  0.000E+00  0.000E+00  0.000E+00  1.05361E+03  1.251E+00  1.200E+01  6.000E-02  1.417E+00
   1    3    5     3     1    2.0000E+00  2.8252E-01   1.7175E+00  0.000E+00  0.000E+00  0.000E+00  1.07555E+03  1.909E+00  9.636E+00  7.227E-02  1.955E+00
   1    3    6     3     2    1.7175E+00  2.4905E-01   1.4684E+00  0.000E+00  0.000E+00  0.000E+00  1.07264E+03  1.727E+00  8.909E+00  6.682E-02  1.864E+00
   1    3    7     3     3    1.4684E+00  1.9718E-01   1.2712E+00  0.000E+00  0.000E+00  0.000E+00  1.06987E+03  1.555E+00  8.218E+00  5.547E-02  1.777E+00
   1    4    8     3     4    1.2712E+00  2.2567E-01   1.0456E+00  0.000E+00  0.000E+00  0.000E+00  1.06682E+03  1.364E+00  7.455E+00  6.709E-02  1.682E+00
   1    5    8     3     5    1.0456E+00  1.5790E-01   8.8768E-01  0.000E+00  0.000E+00  0.000E+00  1.06362E+03  1.164E+00  6.655E+00  4.991E-02  1.582E+00
   1    6    8     3     6    8.8768E-01  5.5980E-02   8.3170E-01  0.000E+00  0.000E+00  0.000E+00  1.06158E+03  1.036E+00  6.145E+00  1.844E-02  1.518E+00
   1    5   10     4     1    1.0000E+01  9.0919E-02   9.9091E+00  0.000E+00  0.000E+00  0.000E+00  1.07836E+03  6.368E-01  1.000E+01  2.500E-02  1.212E+00
   1    5    9     4     2    9.9091E+00  1.8158E-01   9.7275E+00  0.000E+00  0.000E+00  0.000E+00  1.07154E+03  6.315E-01  1.000E+01  5.000E-02  1.211E+00
   1    6    8     4     3    9.7275E+00  1.2689E-01   9.6006E+00  0.000E+00  0.000E+00  0.000E+00  1.06381E+03  6.256E-01  1.000E+01  3.500E-02  1.209E+00
   1    6    8     5     1    1.0432E+01  2.2686E-01   1.0205E+01  0.000E+00  0.000E+00  0.000E+00  1.05868E+03  6.790E-01  1.542E+01  6.166E-02  1.226E+00
   1    7    7     5     2    1.0205E+01  2.7894E-01   9.9265E+00  0.000E+00  0.000E+00  0.000E+00  1.05417E+03  6.732E-01  1.519E+01  7.594E-02  1.224E+00
   1    8    7     5     3    9.9265E+00  1.9221E-01   9.7343E+00  0.000E+00  0.000E+00  0.000E+00  1.04992E+03  6.676E-01  1.497E+01  5.241E-02  1.223E+00
   1    8    6     5     4    9.7343E+00  1.3577E-01   9.5985E+00  0.000E+00  0.000E+00  0.000E+00  1.04691E+03  6.637E-01  1.482E+01  3.706E-02  1.221E+00
   1    9    6     6     1    1.3519E+01  2.3040E-01   1.3289E+01  0.000E+00  0.000E+00  0.000E+00  1.04357E+03  8.401E-01  1.200E+01  6.000E-02  1.280E+00
   1   10    7     6     2    1.3289E+01  2.2988E-01   1.3059E+01  0.000E+00  0.000E+00  0.000E+00  1.03901E+03  8.314E-01  1.200E+01  6.000E-02  1.277E+00
   1   11    7     6     3    1.3059E+01  2.2936E-01   1.2829E+01  0.000E+00  0.000E+00  0.000E+00  1.03446E+03  8.226E-01  1.200E+01  6.000E-02  1.274E+00
   1   12    7     6     4    1.2829E+01  2.2883E-01   1.2600E+01  0.000E+00  0.000E+00  0.000E+00  1.02990E+03  8.139E-01  1.200E+01  6.000E-02  1.271E+00
   1   13    7     6     5    1.2600E+01 -3.3693E-02   1.2634E+01  0.000E+00  0.000E+00  0.000E+00  1.02672E+03  8.101E-01  1.200E+01  2.400E-01 -4.680E-02
   1   14    9     7     1    1.5000E+02  1.3679E+00   1.4863E+02  0.000E+00  0.000E+00  0.000E+00  1.03987E+03  2.288E+00  5.529E+01  5.593E-01  8.152E-01
   1   13    8     7     2    1.4863E+02  1.9152E+00   1.4672E+02  0.000E+00  0.000E+00  0.000E+00  1.03478E+03  2.279E+00  5.526E+01  6.148E-01  1.038E+00
   1   13    7     7     3    1.4672E+02  1.5799E+00   1.4514E+02  0.000E+00  0.000E+00  0.000E+00  1.02969E+03  2.270E+00  5.521E+01  5.584E-01  9.431E-01
   1   13    6     8     1    1.5777E+02  9.4889E-01   1.5682E+02  0.000E+00  0.000E+00  0.000E+00  1.02474E+03  2.867E+00  4.158E+01  4.237E-01  7.465E-01
   1   13    5     8     2    1.5682E+02  2.0283E-01   1.5662E+02  0.000E+00  0.000E+00  0.000E+00  1.01849E+03  2.864E+00  4.152E+01  4.231E-01  1.598E-01
   1   13    4     8     3    1.5662E+02 -2.4162E+00   1.5904E+02  0.000E+00  0.000E+00  0.000E+00  1.01225E+03  2.871E+00  4.163E+01  4.242E+00 -1.898E-01
   1   13    3     8     4    1.5904E+02 -3.6913E+00   1.6273E+02  0.000E+00  0.000E+00  0.000E+00  1.00602E+03  2.892E+00  4.193E+01  4.273E+00 -2.880E-01
   1   13    2     8     5    1.6273E+02 -2.7000E+00   1.6543E+02  0.000E+00  0.000E+00  0.000E+00  9.99788E+02  2.913E+00  4.224E+01  4.305E+00 -2.091E-01
   1   13    1     8     6    1.6543E+02 -2.0780E+00   1.6750E+02  0.000E+00  0.000E+00  0.000E+00  9.94804E+02  2.929E+00  4.247E+01  2.597E+00 -2.667E-01
   1    8    6     9     1    2.2468E+01  0.0000E+00   2.2468E+01  0.000E+00  0.000E+00  0.000E+00  1.08243E+03  3.683E+00  4.000E+00  0.000E+00  2.228E+00
   1    8    5     9     2    2.2468E+01  0.0000E+00   2.2468E+01  0.000E+00  0.000E+00  0.000E+00  1.08193E+03  3.683E+00  4.000E+00  0.000E+00  2.228E+00



 UBDSV3 SAVING "           GW ET" ON UNIT  61 AT TIME STEP 15, STRESS PERIOD 7
 UBDSV3 SAVING "    UZF RECHARGE" ON UNIT  61 AT TIME STEP 15, STRESS PERIOD 7
 UBDSV3 SAVING " SURFACE LEAKAGE" ON UNIT  61 AT TIME STEP 15, STRESS PERIOD 7
 UBDSV3 SAVING "       HORT+DUNN" ON UNIT  61 AT TIME STEP 15, STRESS PERIOD 7
 UBDSV3 SAVING "  STORAGE CHANGE" ON UNIT  61 AT TIME STEP 15, STRESS PERIOD 7


UNSATURATED ZONE PACKAGE VOLUMETRIC BUDGET FOR  TIME STEP    15 STRESS PERIOD    7
  ------------------------------------------------------------------------------



     CUMULATIVE VOLUMES      L**3       RATES FOR THIS TIME STEP      L**3/T
     ------------------                 ------------------------

           IN:                                      IN:
           ---                                      ---
        INFILTRATION =    72280094.5070          INFILTRATION =          23.3157

          OUT:                                     OUT:
          ----                                     ----
              UZF ET =    71139379.5704                UZF ET =          23.3175
        UZF RECHARGE =       73224.0000          UZF RECHARGE =       0.0000E+00

            IN - OUT =     1067490.9366              IN - OUT =      -1.7953E-03

          STORAGE:                                 STORAGE:
          --------                                 --------
      STORAGE CHANGE =     1067705.5359        STORAGE CHANGE =      -1.7970E-03

 PERCENT DISCREPANCY IS DIFFERENCE BETWEEN IN-OUT MINUS CHANGE IN STORAGE
 DIVIDED BY THE AVERAGE OF IN AND OUT TIMES 100

 PERCENT DISCREPANCY =          -0.00     PERCENT DISCREPANCY =           0.00






 

            AG WELLS      PERIOD    7   STEP  15
 AG WELL      1   LAYER   1   ROW     6   COL     4   RATE     0.00000    
 AG WELL      2   LAYER   1   ROW     6   COL     5   RATE     0.00000    
 AG WELL      3   LAYER   1   ROW     7   COL     4   RATE     0.00000    
 AG WELL      4   LAYER   1   ROW     7   COL     5   RATE     0.00000    
 AG WELL      5   LAYER   1   ROW     8   COL     4   RATE     0.00000    
 AG WELL      6   LAYER   1   ROW     8   COL     5   RATE     0.00000    
 
 

   DIVERSION SEGMENTS     PERIOD    7   STEP  15
 SEGMENT      9   RATE     22.4678    
 
 

        SW IRRIGATION     PERIOD    7   STEP  15
 SEGMENT      9   ROW     6   COL     4   RATE     3.74470    
 SEGMENT      9   ROW     6   COL     5   RATE     3.74470    
 SEGMENT      9   ROW     7   COL     4   RATE     3.74470    
 SEGMENT      9   ROW     7   COL     5   RATE     3.74470    
 SEGMENT      9   ROW     8   COL     4   RATE     3.74470    
 SEGMENT      9   ROW     8   COL     5   RATE     3.74470    
 
 

        GW IRRIGATION     PERIOD    7   STEP  15
 AG WELL      1   ROW     6   COL     4   RATE     0.00000    
 AG WELL      2   ROW     6   COL     5   RATE     0.00000    
 AG WELL      3   ROW     7   COL     4   RATE     0.00000    
 AG WELL      4   ROW     7   COL     5   RATE     0.00000    
 AG WELL      5   ROW     8   COL     4   RATE     0.00000    
 AG WELL      6   ROW     8   COL     5   RATE     0.00000    
 
1
  VOLUMETRIC BUDGET FOR AGRICULTURAL FIELDS AT  END OF TIME STEP   15, STRESS PERIOD   7
  ------------------------------------------------------------------------------

     CUMULATIVE VOLUMES      L**3       RATES FOR THIS TIME STEP      L**3/T
     ------------------                 ------------------------

           IN:                                      IN:
           ---                                      ---
               AG WELLS  =     4014972.5000                 AG WELLS  =           0.0000
      DIVERSION SEGMENTS =    55966964.0000        DIVERSION SEGMENTS =          22.4678
       IRRIGATION PONDS  =           0.0000         IRRIGATION PONDS  =           0.0000
           GW IRRIGATION =           0.0000             GW IRRIGATION =           0.0000
           SW IRRIGATION =           0.0000             SW IRRIGATION =           0.0000
        SYSTEM LOSSES GW =           0.0000          SYSTEM LOSSES GW =           0.0000
        SYSTEM LOSSES SW =           0.0000          SYSTEM LOSSES SW =           0.0000

                TOTAL IN =    59981936.0000                  TOTAL IN =          22.4678

          OUT:                                     OUT:
          ----                                     ----
               AG WELLS  =           0.0000                 AG WELLS  =           0.0000
      DIVERSION SEGMENTS =           0.0000        DIVERSION SEGMENTS =           0.0000
       IRRIGATION PONDS  =           0.0000         IRRIGATION PONDS  =           0.0000
           GW IRRIGATION =     4014972.5000             GW IRRIGATION =           0.0000
           SW IRRIGATION =    55968092.0000             SW IRRIGATION =          22.4682
        SYSTEM LOSSES GW =           0.0000          SYSTEM LOSSES GW =           0.0000
        SYSTEM LOSSES SW =           0.0000          SYSTEM LOSSES SW =           0.0000

               TOTAL OUT =    59983064.0000                 TOTAL OUT =          22.4682

                IN - OUT =       -1128.0000                  IN - OUT =      -4.4823E-04

     PERCENT DISCREPANCY =          -0.00         PERCENT DISCREPANCY =          -0.00



1
  VOLUMETRIC BUDGET FOR ENTIRE MODEL AT END OF TIME STEP   15, STRESS PERIOD   7
  ------------------------------------------------------------------------------

     CUMULATIVE VOLUMES      L**3       RATES FOR THIS TIME STEP      L**3/T
     ------------------                 ------------------------

           IN:                                      IN:
           ---                                      ---
             STORAGE     =    13901330.0000               STORAGE     =           1.1683
       CONSTANT HEAD     =           0.0000         CONSTANT HEAD     =           0.0000
     HEAD DEP BOUNDS     =     4188818.0000       HEAD DEP BOUNDS     =           0.2879
      STREAM LEAKAGE     =   172154512.0000        STREAM LEAKAGE     =          12.0716
        UZF RECHARGE     =       73223.9531          UZF RECHARGE     =           0.0000
               GW ET     =           0.0000                 GW ET     =           0.0000
     SURFACE LEAKAGE     =           0.0000       SURFACE LEAKAGE     =           0.0000
           AG WELLS      =           0.0000             AG WELLS      =           0.0000

                TOTAL IN =   190317872.0000                  TOTAL IN =          13.5278

          OUT:                                     OUT:
          ----                                     ----
             STORAGE     =    33046848.0000               STORAGE     =           2.3196
       CONSTANT HEAD     =           0.0000         CONSTANT HEAD     =           0.0000
     HEAD DEP BOUNDS     =     4199060.0000       HEAD DEP BOUNDS     =           0.2890
      STREAM LEAKAGE     =   149060256.0000        STREAM LEAKAGE     =          10.9191
        UZF RECHARGE     =           0.0000          UZF RECHARGE     =           0.0000
               GW ET     =           0.0000                 GW ET     =           0.0000
     SURFACE LEAKAGE     =           0.0000       SURFACE LEAKAGE     =           0.0000
           AG WELLS      =     4014972.5000             AG WELLS      =           0.0000

               TOTAL OUT =   190321136.0000                 TOTAL OUT =          13.5276

                IN - OUT =       -3264.0000                  IN - OUT =       1.8597E-04

     PERCENT DISCREPANCY =          -0.00         PERCENT DISCREPANCY =           0.00






         TIME SUMMARY AT END OF TIME STEP   15 IN STRESS PERIOD    7
                    SECONDS     MINUTES      HOURS       DAYS        YEARS
                    -----------------------------------------------------------
   TIME STEP LENGTH  87667.      1461.1      24.352      1.0147     2.77799E-03
 STRESS PERIOD TIME 1.31500E+06  21917.      365.28      15.220     4.16698E-02
         TOTAL TIME 1.45514E+07 2.42524E+05  4042.1      168.42     0.46111    
1
 
 SOLVING FOR HEAD 
                                                   Max.-Head-Change                         Max.-Flux-Residual
  Residual-Control   Outer-Iter.   Inner-Iter.     Column Row Layer    Maximum-Head-Change  Column Row Layer    Maximum-Flux-Residual          L2-NORM 
          0                 1           2             4   13     1       0.6658267180E-02       4   13    1         0.3827928780E+00      0.8066400194E+00
          0                 2           2             7   13     1      -0.2352689605E-02       7   13    1        -0.1304808105E+00      0.1502439807E+00
          0                 3           2             4    7     1      -0.6975131001E-01       4    7    1        -0.3743964913E+01      0.9212433682E+01
          0                 4           2             4    7     1       0.7261699840E-01       5    8    1         0.4006755207E+01      0.9814691861E+01
          0                 5           2             4    7     1      -0.2890217313E-02       5    8    1        -0.1639748907E+00      0.4015890728E+00
          0                 6           1             4    7     1       0.3566403586E-04       5    8    1         0.2080182739E-02      0.5094755541E-02

    ------------------------------------------------
       NWT REQUIRED            6 OUTER ITERATIONS 
       AND A TOTAL OF         11 INNER ITERATIONS.
    ------------------------------------------------

 NO OUTPUT CONTROL FOR STRESS PERIOD    7   TIME STEP   16
 
 SOLVING FOR HEAD 
                                                   Max.-Head-Change                         Max.-Flux-Residual
  Residual-Control   Outer-Iter.   Inner-Iter.     Column Row Layer    Maximum-Head-Change  Column Row Layer    Maximum-Flux-Residual          L2-NORM 
          0                 1           2             4   13     1       0.6861769913E-02       4   13    1         0.3944962916E+00      0.8182917310E+00
          0                 2           2             7   13     1      -0.2354377810E-02       7   13    1        -0.1305733865E+00      0.1508402414E+00
          0                 3           2             4    7     1      -0.6975124982E-01       4    7    1        -0.3743960644E+01      0.9212537814E+01
          0                 4           2             4    7     1       0.7261701427E-01       5    8    1         0.4006758824E+01      0.9814697713E+01
          0                 5           2             4    7     1      -0.2890217944E-02       5    8    1        -0.1639750383E+00      0.4015893036E+00
          0                 6           1             4    7     1       0.3566404392E-04       5    8    1         0.2080184619E-02      0.5094758924E-02

    ------------------------------------------------
       NWT REQUIRED            6 OUTER ITERATIONS 
       AND A TOTAL OF         11 INNER ITERATIONS.
    ------------------------------------------------

 NO OUTPUT CONTROL FOR STRESS PERIOD    7   TIME STEP   17
 
 SOLVING FOR HEAD 
                                                   Max.-Head-Change                         Max.-Flux-Residual
  Residual-Control   Outer-Iter.   Inner-Iter.     Column Row Layer    Maximum-Head-Change  Column Row Layer    Maximum-Flux-Residual          L2-NORM 
          0                 1           2             4   13     1       0.7046400775E-02       4   13    1         0.4051102684E+00      0.8293341393E+00
          0                 2           2             7   13     1      -0.2356062981E-02       7   13    1        -0.1306658309E+00      0.1514162101E+00
          0                 3           2             4    7     1      -0.6975121335E-01       4    7    1        -0.3743957721E+01      0.9212637587E+01
          0                 4           2             4    7     1       0.7261704006E-01       5    8    1         0.4006762795E+01      0.9814704687E+01
          0                 5           2             4    7     1      -0.2890218970E-02       5    8    1        -0.1639752005E+00      0.4015895686E+00
          0                 6           1             4    7     1       0.3566405658E-04       5    8    1         0.2080186662E-02      0.5094757110E-02

    ------------------------------------------------
       NWT REQUIRED            6 OUTER ITERATIONS 
       AND A TOTAL OF         11 INNER ITERATIONS.
    ------------------------------------------------

 NO OUTPUT CONTROL FOR STRESS PERIOD    7   TIME STEP   18
 
 SOLVING FOR HEAD 
                                                   Max.-Head-Change                         Max.-Flux-Residual
  Residual-Control   Outer-Iter.   Inner-Iter.     Column Row Layer    Maximum-Head-Change  Column Row Layer    Maximum-Flux-Residual          L2-NORM 
          0                 1           2             4   13     1       0.7213932468E-02       4   13    1         0.4147375153E+00      0.8397654726E+00
          0                 2           2             7   13     1      -0.2357699779E-02       7   13    1        -0.1307556335E+00      0.1519695314E+00
          0                 3           2             4    7     1      -0.6975118347E-01       4    7    1        -0.3743955232E+01      0.9212730320E+01
          0                 4           2             4    7     1       0.7261705734E-01       5    8    1         0.4006766106E+01      0.9814710245E+01
          0                 5           2             4    7     1      -0.2890219657E-02       5    8    1        -0.1639753357E+00      0.4015897768E+00
          0                 6           1             4    7     1       0.3566406521E-04       5    8    1         0.2080188368E-02      0.5094760120E-02

    ------------------------------------------------
       NWT REQUIRED            6 OUTER ITERATIONS 
       AND A TOTAL OF         11 INNER ITERATIONS.
    ------------------------------------------------

 NO OUTPUT CONTROL FOR STRESS PERIOD    7   TIME STEP   19
 
 SOLVING FOR HEAD 
                                                   Max.-Head-Change                         Max.-Flux-Residual
  Residual-Control   Outer-Iter.   Inner-Iter.     Column Row Layer    Maximum-Head-Change  Column Row Layer    Maximum-Flux-Residual          L2-NORM 
          0                 1           2             4   13     1       0.7366089236E-02       4   13    1         0.4234775783E+00      0.8495852996E+00
          0                 2           2             7   13     1      -0.2359321624E-02       7   13    1        -0.1308446569E+00      0.1524985169E+00
          0                 3           2             4    7     1      -0.6975117062E-01       4    7    1        -0.3743953722E+01      0.9212818666E+01
          0                 4           2             4    7     1       0.7261707981E-01       4    8    1         0.4006749513E+01      0.9814697362E+01
          0                 5           2             4    7     1      -0.2889209651E-02       4    7    1        -0.1639554661E+00      0.4015775473E+00
          0                 6           1             5    7     1       0.3528560748E-04       5    8    1         0.2079612445E-02      0.5069495493E-02

    ------------------------------------------------
       NWT REQUIRED            6 OUTER ITERATIONS 
       AND A TOTAL OF         11 INNER ITERATIONS.
    ------------------------------------------------

 NO OUTPUT CONTROL FOR STRESS PERIOD    7   TIME STEP   20
 
 SOLVING FOR HEAD 
                                                   Max.-Head-Change                         Max.-Flux-Residual
  Residual-Control   Outer-Iter.   Inner-Iter.     Column Row Layer    Maximum-Head-Change  Column Row Layer    Maximum-Flux-Residual          L2-NORM 
          0                 1           2             4   13     1       0.7504312742E-02       4   13    1         0.4314141562E+00      0.8588061024E+00
          0                 2           2             7   13     1      -0.2360930619E-02       7   13    1        -0.1309330022E+00      0.1530063839E+00
          0                 3           2             4    7     1      -0.6971311705E-01       4    7    1        -0.3743950916E+01      0.9212900644E+01
          0                 4           2             4    7     1       0.7257781992E-01       4    8    1         0.4006751525E+01      0.9813770860E+01
          0                 5           2             4    7     1      -0.2888955220E-02       4    8    1        -0.1639523247E+00      0.4015718526E+00
          0                 6           1             4    7     1       0.3564837514E-04       5    8    1         0.2079614035E-02      0.5094057807E-02

    ------------------------------------------------
       NWT REQUIRED            6 OUTER ITERATIONS 
       AND A TOTAL OF         11 INNER ITERATIONS.
    ------------------------------------------------

 NO OUTPUT CONTROL FOR STRESS PERIOD    7   TIME STEP   21
 
 SOLVING FOR HEAD 
                                                   Max.-Head-Change                         Max.-Flux-Residual
  Residual-Control   Outer-Iter.   Inner-Iter.     Column Row Layer    Maximum-Head-Change  Column Row Layer    Maximum-Flux-Residual          L2-NORM 
          0                 1           2             4   13     1       0.7629921936E-02       4   13    1         0.4386232785E+00      0.8674408454E+00
          0                 2           2             7   13     1      -0.2362516477E-02       7   13    1        -0.1310201000E+00      0.1534844607E+00
          0                 3           2             4    7     1      -0.6971315389E-01       4    7    1        -0.3743952498E+01      0.9212979854E+01
          0                 4           2             4    7     1       0.7257916958E-01       4    8    1         0.4006753504E+01      0.9813807607E+01
          0                 5           2             4    7     1      -0.2890304894E-02       4    7    1        -0.1640216468E+00      0.4016051436E+00
          0                 6           1             4    7     1       0.3566502877E-04       4    7    1         0.2080233930E-02      0.5094461645E-02

    ------------------------------------------------
       NWT REQUIRED            6 OUTER ITERATIONS 
       AND A TOTAL OF         11 INNER ITERATIONS.
    ------------------------------------------------

 NO OUTPUT CONTROL FOR STRESS PERIOD    7   TIME STEP   22
 
 SOLVING FOR HEAD 
                                                   Max.-Head-Change                         Max.-Flux-Residual
  Residual-Control   Outer-Iter.   Inner-Iter.     Column Row Layer    Maximum-Head-Change  Column Row Layer    Maximum-Flux-Residual          L2-NORM 
          0                 1           2             4   13     1       0.7744165343E-02       4   13    1         0.4451773030E+00      0.8755203861E+00
          0                 2           2             7   13     1      -0.2364078816E-02       7   13    1        -0.1311059259E+00      0.1539410050E+00
          0                 3           2             4    7     1      -0.6971318096E-01       4    7    1        -0.3743953538E+01      0.9213054871E+01
          0                 4           2             4    7     1       0.7258050762E-01       5    8    1         0.4006755926E+01      0.9813844468E+01
          0                 5           2             4    7     1      -0.2891639436E-02       4    7    1        -0.1641015255E+00      0.4016381161E+00
          0                 6           1             4    7     1       0.3568149577E-04       4    7    1         0.2081226530E-02      0.5094879996E-02

    ------------------------------------------------
       NWT REQUIRED            6 OUTER ITERATIONS 
       AND A TOTAL OF         11 INNER ITERATIONS.
    ------------------------------------------------

 NO OUTPUT CONTROL FOR STRESS PERIOD    7   TIME STEP   23
 
 SOLVING FOR HEAD 
                                                   Max.-Head-Change                         Max.-Flux-Residual
  Residual-Control   Outer-Iter.   Inner-Iter.     Column Row Layer    Maximum-Head-Change  Column Row Layer    Maximum-Flux-Residual          L2-NORM 
          0                 1           2             4   13     1       0.7848109283E-02       4   13    1         0.4511378835E+00      0.8830654347E+00
          0                 2           2             7   13     1      -0.2365614422E-02       7   13    1        -0.1311903068E+00      0.1543728756E+00
          0                 3           2             4    7     1      -0.6971321279E-01       4    8    1        -0.3743956392E+01      0.9213125386E+01
          0                 4           2             4    7     1       0.7258182597E-01       5    8    1         0.4006758643E+01      0.9813880220E+01
          0                 5           2             4    7     1      -0.2892958096E-02       4    7    1        -0.1641804546E+00      0.4016706832E+00
          0                 6           1             4    7     1       0.3569776709E-04       4    7    1         0.2082208570E-02      0.5095263680E-02

    ------------------------------------------------
       NWT REQUIRED            6 OUTER ITERATIONS 
       AND A TOTAL OF         11 INNER ITERATIONS.
    ------------------------------------------------

 NO OUTPUT CONTROL FOR STRESS PERIOD    7   TIME STEP   24
 
 SOLVING FOR HEAD 
                                                   Max.-Head-Change                         Max.-Flux-Residual
  Residual-Control   Outer-Iter.   Inner-Iter.     Column Row Layer    Maximum-Head-Change  Column Row Layer    Maximum-Flux-Residual          L2-NORM 
          0                 1           2             4   13     1       0.7942658766E-02       4   13    1         0.4565572976E+00      0.8901014634E+00
          0                 2           2             7   13     1      -0.2367126734E-02       7   13    1        -0.1312734202E+00      0.1547817003E+00
          0                 3           2             4    7     1      -0.6971325391E-01       4    8    1        -0.3743969773E+01      0.9213192034E+01
          0                 4           2             4    7     1       0.7258312869E-01       5    8    1         0.4006761261E+01      0.9813915478E+01
          0                 5           2             4    7     1      -0.2894260479E-02       4    7    1        -0.1642584101E+00      0.4017028761E+00
          0                 6           1             4    7     1       0.3571383756E-04       4    7    1         0.2083197200E-02      0.5095666235E-02

    ------------------------------------------------
       NWT REQUIRED            6 OUTER ITERATIONS 
       AND A TOTAL OF         11 INNER ITERATIONS.
    ------------------------------------------------

 NO OUTPUT CONTROL FOR STRESS PERIOD    7   TIME STEP   25
 
 SOLVING FOR HEAD 
                                                   Max.-Head-Change                         Max.-Flux-Residual
  Residual-Control   Outer-Iter.   Inner-Iter.     Column Row Layer    Maximum-Head-Change  Column Row Layer    Maximum-Flux-Residual          L2-NORM 
          0                 1           2             4   13     1       0.8028747453E-02       4   13    1         0.4614894013E+00      0.8966611004E+00
          0                 2           2             7   13     1      -0.2368599775E-02       7   13    1        -0.1313543789E+00      0.1551680293E+00
          0                 3           2             4    7     1      -0.6971330176E-01       4    8    1        -0.3743982810E+01      0.9213255301E+01
          0                 4           2             4    7     1       0.7258441541E-01       4    8    1         0.4006761371E+01      0.9813939628E+01
          0                 5           2             4    7     1      -0.2895546338E-02       4    7    1        -0.1643353769E+00      0.4017199393E+00
          0                 6           1             4    7     1       0.3572970371E-04       4    7    1         0.2084173297E-02      0.5095626009E-02

    ------------------------------------------------
       NWT REQUIRED            6 OUTER ITERATIONS 
       AND A TOTAL OF         11 INNER ITERATIONS.
    ------------------------------------------------

 NO OUTPUT CONTROL FOR STRESS PERIOD    7   TIME STEP   26
 
 SOLVING FOR HEAD 
                                                   Max.-Head-Change                         Max.-Flux-Residual
  Residual-Control   Outer-Iter.   Inner-Iter.     Column Row Layer    Maximum-Head-Change  Column Row Layer    Maximum-Flux-Residual          L2-NORM 
          0                 1           2             4   13     1       0.8107232766E-02       4   13    1         0.4659838313E+00      0.9027710384E+00
          0                 2           2             7   13     1      -0.2370060854E-02       7   13    1        -0.1314347125E+00      0.1555319975E+00
          0                 3           2             4    7     1      -0.6971336552E-01       4    8    1        -0.3743995854E+01      0.9213317132E+01
          0                 4           2             4    7     1       0.7258569513E-01       4    8    1         0.4006763710E+01      0.9813975204E+01
          0                 5           2             4    7     1      -0.2896815774E-02       4    7    1        -0.1644113600E+00      0.4017514195E+00
          0                 6           1             4    7     1       0.3574536756E-04       4    7    1         0.2085136921E-02      0.5096023589E-02

    ------------------------------------------------
       NWT REQUIRED            6 OUTER ITERATIONS 
       AND A TOTAL OF         11 INNER ITERATIONS.
    ------------------------------------------------

 NO OUTPUT CONTROL FOR STRESS PERIOD    7   TIME STEP   27
 
 SOLVING FOR HEAD 
                                                   Max.-Head-Change                         Max.-Flux-Residual
  Residual-Control   Outer-Iter.   Inner-Iter.     Column Row Layer    Maximum-Head-Change  Column Row Layer    Maximum-Flux-Residual          L2-NORM 
          0                 1           2             4   13     1       0.8178682529E-02       4   13    1         0.4700733504E+00      0.9084552586E+00
          0                 2           2             7   13     1      -0.2371498729E-02       7   13    1        -0.1315137739E+00      0.1558769441E+00
          0                 3           2             4    7     1      -0.6971342769E-01       4    8    1        -0.3744008061E+01      0.9213374351E+01
          0                 4           2             4    7     1       0.7258694896E-01       4    8    1         0.4006765513E+01      0.9814009014E+01
          0                 5           2             4    7     1      -0.2898067637E-02       4    7    1        -0.1644862929E+00      0.4017824255E+00
          0                 6           1             4    7     1       0.3576081466E-04       4    7    1         0.2086087231E-02      0.5096411696E-02

    ------------------------------------------------
       NWT REQUIRED            6 OUTER ITERATIONS 
       AND A TOTAL OF         11 INNER ITERATIONS.
    ------------------------------------------------

 NO OUTPUT CONTROL FOR STRESS PERIOD    7   TIME STEP   28
 
 SOLVING FOR HEAD 
                                                   Max.-Head-Change                         Max.-Flux-Residual
  Residual-Control   Outer-Iter.   Inner-Iter.     Column Row Layer    Maximum-Head-Change  Column Row Layer    Maximum-Flux-Residual          L2-NORM 
          0                 1           2             4   13     1       0.8243970687E-02       4   13    1         0.4738084076E+00      0.9137468888E+00
          0                 2           2             7   13     1      -0.2372913919E-02       7   13    1        -0.1315916004E+00      0.1562022194E+00
          0                 3           2             4    7     1      -0.6971349469E-01       4    8    1        -0.3744019920E+01      0.9213428746E+01
          0                 4           2             4    7     1       0.7258818595E-01       4    8    1         0.4006767292E+01      0.9814042339E+01
          0                 5           2             4    7     1      -0.2899302200E-02       4    7    1        -0.1645601906E+00      0.4018130488E+00
          0                 6           1             4    7     1       0.3577604815E-04       4    7    1         0.2087024405E-02      0.5096799373E-02

    ------------------------------------------------
       NWT REQUIRED            6 OUTER ITERATIONS 
       AND A TOTAL OF         11 INNER ITERATIONS.
    ------------------------------------------------

 NO OUTPUT CONTROL FOR STRESS PERIOD    7   TIME STEP   29
 
 SOLVING FOR HEAD 
                                                   Max.-Head-Change                         Max.-Flux-Residual
  Residual-Control   Outer-Iter.   Inner-Iter.     Column Row Layer    Maximum-Head-Change  Column Row Layer    Maximum-Flux-Residual          L2-NORM 
          0                 1           2             4   13     1       0.7407316722E-02       4   13    1         0.4256478187E+00      0.8328646196E+00
          0                 2           2             7   13     1      -0.2129639248E-02       7   13    1        -0.1181023240E+00      0.1409456422E+00
          0                 3           2             4    7     1      -0.6971356796E-01       4    8    1        -0.3744031400E+01      0.9213247817E+01
          0                 4           2             4    7     1       0.7258940584E-01       4    8    1         0.4006769045E+01      0.9814151575E+01
          0                 5           2             4    7     1      -0.2900519138E-02       4    7    1        -0.1646330337E+00      0.4018521509E+00
          0                 6           1             4    7     1       0.3579106421E-04       4    7    1         0.2087948206E-02      0.5098345724E-02

    ------------------------------------------------
       NWT REQUIRED            6 OUTER ITERATIONS 
       AND A TOTAL OF         11 INNER ITERATIONS.
    ------------------------------------------------

 NO OUTPUT CONTROL FOR STRESS PERIOD    7   TIME STEP   30



 STREAM LISTING     PERIOD      7   STEP       30

 LAYER ROW COL. STREAM  RCH.  FLOW INTO     FLOW TO   FLOW OUT OF   OVRLND.     DIRECT     STREAM       STREAM     STREAM     STREAM   STREAMBED  STREAMBED
                SEG.NO.  NO.  STRM. RCH.    AQUIFER    STRM. RCH.    RUNOFF     PRECIP       ET          HEAD       DEPTH      WIDTH   CONDCTNC.   GRADIENT

   1    1    1     1     1    2.8852E+01  2.6229E-01   2.8590E+01  0.000E+00  0.000E+00  0.000E+00  1.09428E+03  1.233E+00  1.377E+01  6.197E-02  1.411E+00
   1    2    2     1     2    2.8590E+01  4.0577E-01   2.8184E+01  0.000E+00  0.000E+00  0.000E+00  1.08929E+03  1.228E+00  1.371E+01  9.596E-02  1.409E+00
   1    3    3     1     3    2.8184E+01  3.4562E-01   2.7838E+01  0.000E+00  0.000E+00  0.000E+00  1.08364E+03  1.223E+00  1.364E+01  8.184E-02  1.408E+00
   1    3    4     1     4    2.7838E+01  3.1791E-01   2.7521E+01  0.000E+00  0.000E+00  0.000E+00  1.07863E+03  1.219E+00  1.358E+01  7.536E-02  1.406E+00
   1    4    5     2     1    2.5521E+01  3.2899E-01   2.5192E+01  0.000E+00  0.000E+00  0.000E+00  1.07315E+03  1.218E+00  1.200E+01  7.800E-02  1.406E+00
   1    5    6     2     2    2.5192E+01  2.5257E-01   2.4939E+01  0.000E+00  0.000E+00  0.000E+00  1.06772E+03  1.209E+00  1.200E+01  6.000E-02  1.403E+00
   1    6    6     2     3    2.4939E+01  2.5213E-01   2.4687E+01  0.000E+00  0.000E+00  0.000E+00  1.06299E+03  1.202E+00  1.200E+01  6.000E-02  1.401E+00
   1    7    6     2     4    2.4687E+01  2.5169E-01   2.4435E+01  0.000E+00  0.000E+00  0.000E+00  1.05827E+03  1.195E+00  1.200E+01  6.000E-02  1.398E+00
   1    8    6     2     5    2.4435E+01  2.5125E-01   2.4184E+01  0.000E+00  0.000E+00  0.000E+00  1.05355E+03  1.187E+00  1.200E+01  6.000E-02  1.396E+00
   1    3    5     3     1    2.0000E+00  2.8252E-01   1.7175E+00  0.000E+00  0.000E+00  0.000E+00  1.07555E+03  1.909E+00  9.636E+00  7.227E-02  1.955E+00
   1    3    6     3     2    1.7175E+00  2.4905E-01   1.4684E+00  0.000E+00  0.000E+00  0.000E+00  1.07264E+03  1.727E+00  8.909E+00  6.682E-02  1.864E+00
   1    3    7     3     3    1.4684E+00  1.9718E-01   1.2712E+00  0.000E+00  0.000E+00  0.000E+00  1.06987E+03  1.555E+00  8.218E+00  5.547E-02  1.777E+00
   1    4    8     3     4    1.2712E+00  2.2567E-01   1.0456E+00  0.000E+00  0.000E+00  0.000E+00  1.06682E+03  1.364E+00  7.455E+00  6.709E-02  1.682E+00
   1    5    8     3     5    1.0456E+00  1.5790E-01   8.8768E-01  0.000E+00  0.000E+00  0.000E+00  1.06362E+03  1.164E+00  6.655E+00  4.991E-02  1.582E+00
   1    6    8     3     6    8.8768E-01  5.5980E-02   8.3170E-01  0.000E+00  0.000E+00  0.000E+00  1.06158E+03  1.036E+00  6.145E+00  1.844E-02  1.518E+00
   1    5   10     4     1    1.0000E+01  9.0919E-02   9.9091E+00  0.000E+00  0.000E+00  0.000E+00  1.07836E+03  6.368E-01  1.000E+01  2.500E-02  1.212E+00
   1    5    9     4     2    9.9091E+00  1.8158E-01   9.7275E+00  0.000E+00  0.000E+00  0.000E+00  1.07154E+03  6.315E-01  1.000E+01  5.000E-02  1.211E+00
   1    6    8     4     3    9.7275E+00  1.2689E-01   9.6006E+00  0.000E+00  0.000E+00  0.000E+00  1.06381E+03  6.256E-01  1.000E+01  3.500E-02  1.209E+00
   1    6    8     5     1    1.0432E+01  2.2686E-01   1.0205E+01  0.000E+00  0.000E+00  0.000E+00  1.05868E+03  6.790E-01  1.542E+01  6.166E-02  1.226E+00
   1    7    7     5     2    1.0205E+01  2.7894E-01   9.9265E+00  0.000E+00  0.000E+00  0.000E+00  1.05417E+03  6.732E-01  1.519E+01  7.594E-02  1.224E+00
   1    8    7     5     3    9.9265E+00  1.9221E-01   9.7343E+00  0.000E+00  0.000E+00  0.000E+00  1.04992E+03  6.676E-01  1.497E+01  5.241E-02  1.223E+00
   1    8    6     5     4    9.7343E+00  1.3577E-01   9.5985E+00  0.000E+00  0.000E+00  0.000E+00  1.04691E+03  6.637E-01  1.482E+01  3.706E-02  1.221E+00
   1    9    6     6     1    1.1315E+01  2.2526E-01   1.1089E+01  0.000E+00  0.000E+00  0.000E+00  1.04348E+03  7.543E-01  1.200E+01  6.000E-02  1.251E+00
   1   10    7     6     2    1.1089E+01  2.2471E-01   1.0865E+01  0.000E+00  0.000E+00  0.000E+00  1.03893E+03  7.452E-01  1.200E+01  6.000E-02  1.248E+00
   1   11    7     6     3    1.0865E+01  2.2416E-01   1.0640E+01  0.000E+00  0.000E+00  0.000E+00  1.03437E+03  7.360E-01  1.200E+01  6.000E-02  1.245E+00
   1   12    7     6     4    1.0640E+01  2.2361E-01   1.0417E+01  0.000E+00  0.000E+00  0.000E+00  1.02982E+03  7.268E-01  1.200E+01  6.000E-02  1.242E+00
   1   13    7     6     5    1.0417E+01 -5.3482E-02   1.0470E+01  0.000E+00  0.000E+00  0.000E+00  1.02663E+03  7.232E-01  1.200E+01  2.400E-01 -7.428E-02
   1   14    9     7     1    1.5000E+02  1.3680E+00   1.4863E+02  0.000E+00  0.000E+00  0.000E+00  1.03987E+03  2.288E+00  5.529E+01  5.593E-01  8.153E-01
   1   13    8     7     2    1.4863E+02  1.9151E+00   1.4672E+02  0.000E+00  0.000E+00  0.000E+00  1.03478E+03  2.279E+00  5.526E+01  6.148E-01  1.038E+00
   1   13    7     7     3    1.4672E+02  1.5824E+00   1.4513E+02  0.000E+00  0.000E+00  0.000E+00  1.02969E+03  2.270E+00  5.521E+01  5.584E-01  9.446E-01
   1   13    6     8     1    1.5560E+02  9.4168E-01   1.5466E+02  0.000E+00  0.000E+00  0.000E+00  1.02473E+03  2.853E+00  4.136E+01  4.215E-01  7.447E-01
   1   13    5     8     2    1.5466E+02  2.0010E-01   1.5446E+02  0.000E+00  0.000E+00  0.000E+00  1.01847E+03  2.849E+00  4.131E+01  4.209E-01  1.585E-01
   1   13    4     8     3    1.5446E+02 -2.3861E+00   1.5685E+02  0.000E+00  0.000E+00  0.000E+00  1.01223E+03  2.856E+00  4.142E+01  4.220E+00 -1.885E-01
   1   13    3     8     4    1.5685E+02 -3.6499E+00   1.6050E+02  0.000E+00  0.000E+00  0.000E+00  1.00600E+03  2.877E+00  4.171E+01  4.251E+00 -2.862E-01
   1   13    2     8     5    1.6050E+02 -2.6480E+00   1.6315E+02  0.000E+00  0.000E+00  0.000E+00  9.99773E+02  2.898E+00  4.202E+01  4.282E+00 -2.061E-01
   1   13    1     8     6    1.6315E+02 -2.0484E+00   1.6520E+02  0.000E+00  0.000E+00  0.000E+00  9.94789E+02  2.914E+00  4.225E+01  2.583E+00 -2.643E-01
   1    8    6     9     1    2.2468E+01  0.0000E+00   2.2468E+01  0.000E+00  0.000E+00  0.000E+00  1.08243E+03  3.683E+00  4.000E+00  0.000E+00  2.228E+00
   1    8    5     9     2    2.2468E+01  0.0000E+00   2.2468E+01  0.000E+00  0.000E+00  0.000E+00  1.08193E+03  3.683E+00  4.000E+00  0.000E+00  2.228E+00





UNSATURATED ZONE PACKAGE VOLUMETRIC BUDGET FOR  TIME STEP    30 STRESS PERIOD    7
  ------------------------------------------------------------------------------



     CUMULATIVE VOLUMES      L**3       RATES FOR THIS TIME STEP      L**3/T
     ------------------                 ------------------------

           IN:                                      IN:
           ---                                      ---
        INFILTRATION =   102940310.6327          INFILTRATION =          23.3158

          OUT:                                     OUT:
          ----                                     ----
              UZF ET =   101801892.0086                UZF ET =          23.3175
        UZF RECHARGE =       73224.0000          UZF RECHARGE =       0.0000E+00

            IN - OUT =     1065194.6241              IN - OUT =      -1.7023E-03

          STORAGE:                                 STORAGE:
          --------                                 --------
      STORAGE CHANGE =     1065408.4991        STORAGE CHANGE =      -1.7032E-03

 PERCENT DISCREPANCY IS DIFFERENCE BETWEEN IN-OUT MINUS CHANGE IN STORAGE
 DIVIDED BY THE AVERAGE OF IN AND OUT TIMES 100

 PERCENT DISCREPANCY =          -0.00     PERCENT DISCREPANCY =           0.00






1
  VOLUMETRIC BUDGET FOR AGRICULTURAL FIELDS AT  END OF TIME STEP   30, STRESS PERIOD   7
  ------------------------------------------------------------------------------

     CUMULATIVE VOLUMES      L**3       RATES FOR THIS TIME STEP      L**3/T
     ------------------                 ------------------------

           IN:                                      IN:
           ---                                      ---
               AG WELLS  =     4014972.5000                 AG WELLS  =           0.0000
      DIVERSION SEGMENTS =    85512136.0000        DIVERSION SEGMENTS =          22.4678
       IRRIGATION PONDS  =           0.0000         IRRIGATION PONDS  =           0.0000
           GW IRRIGATION =           0.0000             GW IRRIGATION =           0.0000
           SW IRRIGATION =           0.0000             SW IRRIGATION =           0.0000
        SYSTEM LOSSES GW =           0.0000          SYSTEM LOSSES GW =           0.0000
        SYSTEM LOSSES SW =           0.0000          SYSTEM LOSSES SW =           0.0000

                TOTAL IN =    89527112.0000                  TOTAL IN =          22.4678

          OUT:                                     OUT:
          ----                                     ----
               AG WELLS  =           0.0000                 AG WELLS  =           0.0000
      DIVERSION SEGMENTS =           0.0000        DIVERSION SEGMENTS =           0.0000
       IRRIGATION PONDS  =           0.0000         IRRIGATION PONDS  =           0.0000
           GW IRRIGATION =     4014972.5000             GW IRRIGATION =           0.0000
           SW IRRIGATION =    85513856.0000             SW IRRIGATION =          22.4683
        SYSTEM LOSSES GW =           0.0000          SYSTEM LOSSES GW =           0.0000
        SYSTEM LOSSES SW =           0.0000          SYSTEM LOSSES SW =           0.0000

               TOTAL OUT =    89528832.0000                 TOTAL OUT =          22.4683

                IN - OUT =       -1720.0000                  IN - OUT =      -4.4823E-04

     PERCENT DISCREPANCY =          -0.00         PERCENT DISCREPANCY =          -0.00



1
  VOLUMETRIC BUDGET FOR ENTIRE MODEL AT END OF TIME STEP   30, STRESS PERIOD   7
  ------------------------------------------------------------------------------

     CUMULATIVE VOLUMES      L**3       RATES FOR THIS TIME STEP      L**3/T
     ------------------                 ------------------------

           IN:                                      IN:
           ---                                      ---
             STORAGE     =    15068888.0000               STORAGE     =           0.9073
       CONSTANT HEAD     =           0.0000         CONSTANT HEAD     =           0.0000
     HEAD DEP BOUNDS     =     4567468.0000       HEAD DEP BOUNDS     =           0.2880
      STREAM LEAKAGE     =   188027072.0000        STREAM LEAKAGE     =          11.9747
        UZF RECHARGE     =       73223.9531          UZF RECHARGE     =           0.0000
               GW ET     =           0.0000                 GW ET     =           0.0000
     SURFACE LEAKAGE     =           0.0000       SURFACE LEAKAGE     =           0.0000
           AG WELLS      =           0.0000             AG WELLS      =           0.0000

                TOTAL IN =   207736640.0000                  TOTAL IN =          13.1700

          OUT:                                     OUT:
          ----                                     ----
             STORAGE     =    35962516.0000               STORAGE     =           2.0959
       CONSTANT HEAD     =           0.0000         CONSTANT HEAD     =           0.0000
     HEAD DEP BOUNDS     =     4578396.0000       HEAD DEP BOUNDS     =           0.2881
      STREAM LEAKAGE     =   163183776.0000        STREAM LEAKAGE     =          10.7858
        UZF RECHARGE     =           0.0000          UZF RECHARGE     =           0.0000
               GW ET     =           0.0000                 GW ET     =           0.0000
     SURFACE LEAKAGE     =           0.0000       SURFACE LEAKAGE     =           0.0000
           AG WELLS      =     4014972.5000             AG WELLS      =           0.0000

               TOTAL OUT =   207739664.0000                 TOTAL OUT =          13.1698

                IN - OUT =       -3024.0000                  IN - OUT =       1.8978E-04

     PERCENT DISCREPANCY =          -0.00         PERCENT DISCREPANCY =           0.00






         TIME SUMMARY AT END OF TIME STEP   30 IN STRESS PERIOD    7
                    SECONDS     MINUTES      HOURS       DAYS        YEARS
                    -----------------------------------------------------------
   TIME STEP LENGTH  87667.      1461.1      24.352      1.0147     2.77799E-03
 STRESS PERIOD TIME 2.63000E+06  43833.      730.56      30.440     8.33397E-02
         TOTAL TIME 1.58664E+07 2.64440E+05  4407.3      183.64     0.50278    
1
1
                            STRESS PERIOD NO.    8, LENGTH =   2630000.    
                            -----------------------------------------------

                              NUMBER OF TIME STEPS =    30

                               MULTIPLIER FOR DELT =     1.000

                            INITIAL TIME STEP SIZE =   87666.66    

 REUSING NON-PARAMETER GHB CELLS FROM LAST STRESS PERIOD

      2 GHB CELLS

 REUSING STREAM SEGMENT DATA FROM LAST STRESS PERIOD



            AREAL INFILTRATION RATE
 READING ON UNIT   19 WITH FORMAT: (FREE)              

            1           2           3           4           5           6           7           8           9          10
 ........................................................................................................................
   1   1.0000E-10  2.0000E-10   0.000       0.000       0.000       0.000       0.000       0.000       0.000       0.000    
   2   2.0000E-10  1.0000E-10  2.0000E-10   0.000       0.000      8.0000E-10  8.0000E-10  5.0000E-10   0.000       0.000    
   3    0.000      5.0000E-10  1.0000E-10  1.0000E-10  8.0000E-10  8.0000E-10  5.0000E-10  5.0000E-10   0.000       0.000    
   4   8.0000E-10  5.0000E-10  1.0000E-10  1.0000E-10  1.0000E-10  1.0000E-10  1.0000E-10  1.0000E-10  2.0000E-10   0.000    
   5   8.0000E-10  5.0000E-10  1.0000E-10  1.0000E-10  1.0000E-10  1.0000E-10  1.0000E-10  1.0000E-10  1.0000E-10  1.0000E-10
   6   8.0000E-10  5.0000E-10  5.0000E-10  2.0000E-10  2.0000E-10  1.0000E-10  1.0000E-10  1.0000E-10  1.0000E-10  5.0000E-10
   7   8.0000E-10  5.0000E-10  5.0000E-10  2.0000E-10  2.0000E-10  1.0000E-10  1.0000E-10  2.0000E-10  2.0000E-10   0.000    
   8    0.000      5.0000E-10  5.0000E-10  2.0000E-10  2.0000E-10  1.0000E-10  1.0000E-10  2.0000E-10  5.0000E-10   0.000    
   9    0.000      5.0000E-10  5.0000E-10  2.0000E-10  2.0000E-10  1.0000E-10  1.0000E-10  2.0000E-10  5.0000E-10   0.000    
  10    0.000      5.0000E-10  5.0000E-10  2.0000E-10  2.0000E-10  1.0000E-10  1.0000E-10  2.0000E-10  5.0000E-10  8.0000E-10
  11    0.000      1.0000E-10  1.0000E-10  1.0000E-10  1.0000E-10  1.0000E-10  1.0000E-10  2.0000E-10  5.0000E-10   0.000    
  12   1.0000E-10  1.0000E-10  1.0000E-10  1.0000E-10  1.0000E-10  1.0000E-10  1.0000E-10  1.0000E-10  2.0000E-10   0.000    
  13   1.0000E-10  1.0000E-10  2.0000E-10  2.0000E-10  2.0000E-10  2.0000E-10  2.0000E-10  1.0000E-10  1.0000E-10   0.000    
  14    0.000      2.0000E-10  5.0000E-10  5.0000E-10  5.0000E-10  5.0000E-10  5.0000E-10  2.0000E-10  1.0000E-10   0.000    
  15    0.000       0.000      8.0000E-10  8.0000E-10  8.0000E-10  8.0000E-10   0.000       0.000       0.000       0.000    

                  ET RATE =  4.000000E-07

 USING ET EXTINCTION DEPTH FROM PREVIOUS STRESS PERIOD. CURRENT PERIOD IS:       8

 USING EXTINCTION WATER CONTENT FROM PREVIOUS STRESS PERIOD. CURRENT PERIOD IS:       8

 USING AIR ENTRY PRESSURE FROM PREVIOUS STRESS PERIOD. CURRENT PERIOD IS:       8

 USING ROOT PRESSURE HEAD FROM PREVIOUS STRESS PERIOD. CURRENT PERIOD IS:       8

 USING ROOT ACTIVITY FROM PREVIOUS STRESS PERIOD. CURRENT PERIOD IS:       8

 PROCESSING AG STRESS PERIOD DATA

 READING AG STRESS PERIOD DATA

 READING IRRIGATION SEGMENT

 READING IRRIGATION WELL

 READING SUPPLEMENTAL WELL

 NO IRRPOND OR REUSING IRRPOND DATA FROM LAST STRESS PERIOD

 END PROCESSING AG STRESS PERIOD DATA OPTIONS
 
 SOLVING FOR HEAD 
                                                   Max.-Head-Change                         Max.-Flux-Residual
  Residual-Control   Outer-Iter.   Inner-Iter.     Column Row Layer    Maximum-Head-Change  Column Row Layer    Maximum-Flux-Residual          L2-NORM 
          0                 1           2             1    1     1       0.3080973029E-02       1    1    1         0.1599469279E+00      0.4898433201E+00
          0                 2           2             4    7     1      -0.2279103955E+00       5    6    1        -0.1224146443E+02      0.2998265997E+02
          0                 3           2             4    7     1       0.1541102925E-01       5    6    1         0.8568882485E+00      0.2094892209E+01
          0                 4           2             4    7     1      -0.6132206623E-03       5    6    1        -0.3504684614E-01      0.8568238736E-01
          0                 5           1             4    7     1       0.7561274288E-05       5    6    1         0.4441514548E-03      0.1086933007E-02

    ------------------------------------------------
       NWT REQUIRED            5 OUTER ITERATIONS 
       AND A TOTAL OF          9 INNER ITERATIONS.
    ------------------------------------------------

 OUTPUT CONTROL FOR STRESS PERIOD    8   TIME STEP    1
    PRINT BUDGET
    SAVE BUDGET
 UBDSV1 SAVING "         STORAGE" ON UNIT 102 AT TIME STEP 1, STRESS PERIOD 8
 UBDSV2 SAVING "   CONSTANT HEAD" ON UNIT 102 AT TIME STEP 1, STRESS PERIOD 8
 UBDSV1 SAVING "FLOW RIGHT FACE " ON UNIT 102 AT TIME STEP 1, STRESS PERIOD 8
 UBDSV1 SAVING "FLOW FRONT FACE " ON UNIT 102 AT TIME STEP 1, STRESS PERIOD 8

  HEAD DEP BOUNDS   PERIOD    8   STEP     1
 BOUNDARY      1   LAYER   1   ROW    13   COL     1   RATE   -0.288040    
 BOUNDARY      2   LAYER   1   ROW    14   COL     9   RATE    0.287952    



 STREAM LISTING     PERIOD      8   STEP        1

 LAYER ROW COL. STREAM  RCH.  FLOW INTO     FLOW TO   FLOW OUT OF   OVRLND.     DIRECT     STREAM       STREAM     STREAM     STREAM   STREAMBED  STREAMBED
                SEG.NO.  NO.  STRM. RCH.    AQUIFER    STRM. RCH.    RUNOFF     PRECIP       ET          HEAD       DEPTH      WIDTH   CONDCTNC.   GRADIENT

   1    1    1     1     1    2.8125E+01  2.5915E-01   2.7866E+01  0.000E+00  0.000E+00  0.000E+00  1.09427E+03  1.223E+00  1.364E+01  6.137E-02  1.408E+00
   1    2    2     1     2    2.7866E+01  4.0087E-01   2.7465E+01  0.000E+00  0.000E+00  0.000E+00  1.08928E+03  1.218E+00  1.358E+01  9.503E-02  1.406E+00
   1    3    3     1     3    2.7465E+01  3.4143E-01   2.7124E+01  0.000E+00  0.000E+00  0.000E+00  1.08363E+03  1.213E+00  1.351E+01  8.104E-02  1.404E+00
   1    3    4     1     4    2.7124E+01  3.1403E-01   2.6810E+01  0.000E+00  0.000E+00  0.000E+00  1.07862E+03  1.209E+00  1.344E+01  7.461E-02  1.403E+00
   1    4    5     2     1    2.4810E+01  3.2739E-01   2.4482E+01  0.000E+00  0.000E+00  0.000E+00  1.07313E+03  1.197E+00  1.200E+01  7.800E-02  1.399E+00
   1    5    6     2     2    2.4482E+01  2.5133E-01   2.4231E+01  0.000E+00  0.000E+00  0.000E+00  1.06770E+03  1.189E+00  1.200E+01  6.000E-02  1.396E+00
   1    6    6     2     3    2.4231E+01  2.5089E-01   2.3980E+01  0.000E+00  0.000E+00  0.000E+00  1.06297E+03  1.181E+00  1.200E+01  6.000E-02  1.394E+00
   1    7    6     2     4    2.3980E+01  2.5044E-01   2.3730E+01  0.000E+00  0.000E+00  0.000E+00  1.05825E+03  1.174E+00  1.200E+01  6.000E-02  1.391E+00
   1    8    6     2     5    2.3730E+01  2.5000E-01   2.3480E+01  0.000E+00  0.000E+00  0.000E+00  1.05353E+03  1.167E+00  1.200E+01  6.000E-02  1.389E+00
   1    3    5     3     1    2.0000E+00  2.8252E-01   1.7175E+00  0.000E+00  0.000E+00  0.000E+00  1.07555E+03  1.909E+00  9.636E+00  7.227E-02  1.955E+00
   1    3    6     3     2    1.7175E+00  2.4905E-01   1.4684E+00  0.000E+00  0.000E+00  0.000E+00  1.07264E+03  1.727E+00  8.909E+00  6.682E-02  1.864E+00
   1    3    7     3     3    1.4684E+00  1.9718E-01   1.2712E+00  0.000E+00  0.000E+00  0.000E+00  1.06987E+03  1.555E+00  8.218E+00  5.547E-02  1.777E+00
   1    4    8     3     4    1.2712E+00  2.2567E-01   1.0456E+00  0.000E+00  0.000E+00  0.000E+00  1.06682E+03  1.364E+00  7.455E+00  6.709E-02  1.682E+00
   1    5    8     3     5    1.0456E+00  1.5790E-01   8.8768E-01  0.000E+00  0.000E+00  0.000E+00  1.06362E+03  1.164E+00  6.655E+00  4.991E-02  1.582E+00
   1    6    8     3     6    8.8768E-01  5.5980E-02   8.3170E-01  0.000E+00  0.000E+00  0.000E+00  1.06158E+03  1.036E+00  6.145E+00  1.844E-02  1.518E+00
   1    5   10     4     1    1.0000E+01  9.0919E-02   9.9091E+00  0.000E+00  0.000E+00  0.000E+00  1.07836E+03  6.368E-01  1.000E+01  2.500E-02  1.212E+00
   1    5    9     4     2    9.9091E+00  1.8158E-01   9.7275E+00  0.000E+00  0.000E+00  0.000E+00  1.07154E+03  6.315E-01  1.000E+01  5.000E-02  1.211E+00
   1    6    8     4     3    9.7275E+00  1.2689E-01   9.6006E+00  0.000E+00  0.000E+00  0.000E+00  1.06381E+03  6.256E-01  1.000E+01  3.500E-02  1.209E+00
   1    6    8     5     1    1.0432E+01  2.2686E-01   1.0205E+01  0.000E+00  0.000E+00  0.000E+00  1.05868E+03  6.790E-01  1.542E+01  6.166E-02  1.226E+00
   1    7    7     5     2    1.0205E+01  2.7894E-01   9.9265E+00  0.000E+00  0.000E+00  0.000E+00  1.05417E+03  6.732E-01  1.519E+01  7.594E-02  1.224E+00
   1    8    7     5     3    9.9265E+00  1.9221E-01   9.7343E+00  0.000E+00  0.000E+00  0.000E+00  1.04992E+03  6.676E-01  1.497E+01  5.241E-02  1.223E+00
   1    8    6     5     4    9.7343E+00  1.3577E-01   9.5985E+00  0.000E+00  0.000E+00  0.000E+00  1.04691E+03  6.637E-01  1.482E+01  3.706E-02  1.221E+00
   1    9    6     6     1    9.5985E+00  2.2097E-01   9.3776E+00  0.000E+00  0.000E+00  0.000E+00  1.04341E+03  6.828E-01  1.200E+01  6.000E-02  1.228E+00
   1   10    7     6     2    9.3776E+00  2.2039E-01   9.1572E+00  0.000E+00  0.000E+00  0.000E+00  1.03885E+03  6.732E-01  1.200E+01  6.000E-02  1.224E+00
   1   11    7     6     3    9.1572E+00  2.1981E-01   8.9374E+00  0.000E+00  0.000E+00  0.000E+00  1.03430E+03  6.636E-01  1.200E+01  6.000E-02  1.221E+00
   1   12    7     6     4    8.9374E+00  2.1923E-01   8.7181E+00  0.000E+00  0.000E+00  0.000E+00  1.02974E+03  6.539E-01  1.200E+01  6.000E-02  1.218E+00
   1   13    7     6     5    8.7181E+00 -7.0718E-02   8.7888E+00  0.000E+00  0.000E+00  0.000E+00  1.02656E+03  6.505E-01  1.200E+01  2.400E-01 -9.822E-02
   1   14    9     7     1    1.5000E+02  1.3680E+00   1.4863E+02  0.000E+00  0.000E+00  0.000E+00  1.03987E+03  2.288E+00  5.529E+01  5.593E-01  8.153E-01
   1   13    8     7     2    1.4863E+02  1.9151E+00   1.4672E+02  0.000E+00  0.000E+00  0.000E+00  1.03478E+03  2.279E+00  5.526E+01  6.148E-01  1.038E+00
   1   13    7     7     3    1.4672E+02  1.5829E+00   1.4513E+02  0.000E+00  0.000E+00  0.000E+00  1.02969E+03  2.270E+00  5.521E+01  5.584E-01  9.449E-01
   1   13    6     8     1    1.5392E+02  9.3333E-01   1.5299E+02  0.000E+00  0.000E+00  0.000E+00  1.02472E+03  2.841E+00  4.119E+01  4.198E-01  7.411E-01
   1   13    5     8     2    1.5299E+02  1.9479E-01   1.5279E+02  0.000E+00  0.000E+00  0.000E+00  1.01846E+03  2.837E+00  4.114E+01  4.192E-01  1.549E-01
   1   13    4     8     3    1.5279E+02 -2.4165E+00   1.5521E+02  0.000E+00  0.000E+00  0.000E+00  1.01222E+03  2.845E+00  4.125E+01  4.203E+00 -1.916E-01
   1   13    3     8     4    1.5521E+02 -3.6750E+00   1.5889E+02  0.000E+00  0.000E+00  0.000E+00  1.00599E+03  2.866E+00  4.155E+01  4.234E+00 -2.893E-01
   1   13    2     8     5    1.5889E+02 -2.6751E+00   1.6156E+02  0.000E+00  0.000E+00  0.000E+00  9.99762E+02  2.887E+00  4.187E+01  4.266E+00 -2.090E-01
   1   13    1     8     6    1.6156E+02 -2.0636E+00   1.6362E+02  0.000E+00  0.000E+00  0.000E+00  9.94778E+02  2.903E+00  4.210E+01  2.574E+00 -2.672E-01
   1    8    6     9     1    2.3480E+01  0.0000E+00   2.3480E+01  0.000E+00  0.000E+00  0.000E+00  1.08253E+03  3.782E+00  4.000E+00  0.000E+00  2.261E+00
   1    8    5     9     2    2.3480E+01  0.0000E+00   2.3480E+01  0.000E+00  0.000E+00  0.000E+00  1.08203E+03  3.782E+00  4.000E+00  0.000E+00  2.261E+00



 UBDSV3 SAVING "           GW ET" ON UNIT  61 AT TIME STEP 1, STRESS PERIOD 8
 UBDSV3 SAVING "    UZF RECHARGE" ON UNIT  61 AT TIME STEP 1, STRESS PERIOD 8
 UBDSV3 SAVING " SURFACE LEAKAGE" ON UNIT  61 AT TIME STEP 1, STRESS PERIOD 8
 UBDSV3 SAVING "       HORT+DUNN" ON UNIT  61 AT TIME STEP 1, STRESS PERIOD 8
 UBDSV3 SAVING "  STORAGE CHANGE" ON UNIT  61 AT TIME STEP 1, STRESS PERIOD 8


UNSATURATED ZONE PACKAGE VOLUMETRIC BUDGET FOR  TIME STEP     1 STRESS PERIOD    8
  ------------------------------------------------------------------------------



     CUMULATIVE VOLUMES      L**3       RATES FOR THIS TIME STEP      L**3/T
     ------------------                 ------------------------

           IN:                                      IN:
           ---                                      ---
        INFILTRATION =   111506294.3786          INFILTRATION =          97.7108

          OUT:                                     OUT:
          ----                                     ----
              UZF ET =   107133559.2545                UZF ET =          60.8175
        UZF RECHARGE =       73224.0000          UZF RECHARGE =       0.0000E+00

            IN - OUT =     4299511.1241              IN - OUT =          36.8933

          STORAGE:                                 STORAGE:
          --------                                 --------
      STORAGE CHANGE =     4299725.1605        STORAGE CHANGE =          36.8933

 PERCENT DISCREPANCY IS DIFFERENCE BETWEEN IN-OUT MINUS CHANGE IN STORAGE
 DIVIDED BY THE AVERAGE OF IN AND OUT TIMES 100

 PERCENT DISCREPANCY =          -0.00     PERCENT DISCREPANCY =           0.00






 

            AG WELLS      PERIOD    8   STEP   1
 AG WELL      1   LAYER   1   ROW     6   COL     4   RATE    -12.2305    
 AG WELL      2   LAYER   1   ROW     6   COL     5   RATE    -12.2305    
 AG WELL      3   LAYER   1   ROW     7   COL     4   RATE    -12.2305    
 AG WELL      4   LAYER   1   ROW     7   COL     5   RATE    -12.2305    
 AG WELL      5   LAYER   1   ROW     8   COL     4   RATE    -12.2305    
 AG WELL      6   LAYER   1   ROW     8   COL     5   RATE    -12.2305    
 
 

   DIVERSION SEGMENTS     PERIOD    8   STEP   1
 SEGMENT      9   RATE     23.4796    
 
 

        SW IRRIGATION     PERIOD    8   STEP   1
 SEGMENT      9   ROW     6   COL     4   RATE     3.91334    
 SEGMENT      9   ROW     6   COL     5   RATE     3.91334    
 SEGMENT      9   ROW     7   COL     4   RATE     3.91334    
 SEGMENT      9   ROW     7   COL     5   RATE     3.91334    
 SEGMENT      9   ROW     8   COL     4   RATE     3.91334    
 SEGMENT      9   ROW     8   COL     5   RATE     3.91334    
 
 

        GW IRRIGATION     PERIOD    8   STEP   1
 AG WELL      1   ROW     6   COL     4   RATE     12.2305    
 AG WELL      2   ROW     6   COL     5   RATE     12.2305    
 AG WELL      3   ROW     7   COL     4   RATE     12.2305    
 AG WELL      4   ROW     7   COL     5   RATE     12.2305    
 AG WELL      5   ROW     8   COL     4   RATE     12.2305    
 AG WELL      6   ROW     8   COL     5   RATE     12.2305    
 
1
  VOLUMETRIC BUDGET FOR AGRICULTURAL FIELDS AT  END OF TIME STEP    1, STRESS PERIOD   8
  ------------------------------------------------------------------------------

     CUMULATIVE VOLUMES      L**3       RATES FOR THIS TIME STEP      L**3/T
     ------------------                 ------------------------

           IN:                                      IN:
           ---                                      ---
               AG WELLS  =    10448242.0000                 AG WELLS  =          73.3833
      DIVERSION SEGMENTS =    87570512.0000        DIVERSION SEGMENTS =          23.4796
       IRRIGATION PONDS  =           0.0000         IRRIGATION PONDS  =           0.0000
           GW IRRIGATION =           0.0000             GW IRRIGATION =           0.0000
           SW IRRIGATION =           0.0000             SW IRRIGATION =           0.0000
        SYSTEM LOSSES GW =           0.0000          SYSTEM LOSSES GW =           0.0000
        SYSTEM LOSSES SW =           0.0000          SYSTEM LOSSES SW =           0.0000

                TOTAL IN =    98018752.0000                  TOTAL IN =          96.8629

          OUT:                                     OUT:
          ----                                     ----
               AG WELLS  =           0.0000                 AG WELLS  =           0.0000
      DIVERSION SEGMENTS =           0.0000        DIVERSION SEGMENTS =           0.0000
       IRRIGATION PONDS  =           0.0000         IRRIGATION PONDS  =           0.0000
           GW IRRIGATION =    10448242.0000             GW IRRIGATION =          73.3833
           SW IRRIGATION =    87572272.0000             SW IRRIGATION =          23.4801
        SYSTEM LOSSES GW =           0.0000          SYSTEM LOSSES GW =           0.0000
        SYSTEM LOSSES SW =           0.0000          SYSTEM LOSSES SW =           0.0000

               TOTAL OUT =    98020512.0000                 TOTAL OUT =          96.8634

                IN - OUT =       -1760.0000                  IN - OUT =      -4.7302E-04

     PERCENT DISCREPANCY =          -0.00         PERCENT DISCREPANCY =          -0.00



1
  VOLUMETRIC BUDGET FOR ENTIRE MODEL AT END OF TIME STEP    1, STRESS PERIOD   8
  ------------------------------------------------------------------------------

     CUMULATIVE VOLUMES      L**3       RATES FOR THIS TIME STEP      L**3/T
     ------------------                 ------------------------

           IN:                                      IN:
           ---                                      ---
             STORAGE     =    21529086.0000               STORAGE     =          73.6905
       CONSTANT HEAD     =           0.0000         CONSTANT HEAD     =           0.0000
     HEAD DEP BOUNDS     =     4592712.0000       HEAD DEP BOUNDS     =           0.2880
      STREAM LEAKAGE     =   189072192.0000        STREAM LEAKAGE     =          11.9215
        UZF RECHARGE     =       73223.9531          UZF RECHARGE     =           0.0000
               GW ET     =           0.0000                 GW ET     =           0.0000
     SURFACE LEAKAGE     =           0.0000       SURFACE LEAKAGE     =           0.0000
           AG WELLS      =           0.0000             AG WELLS      =           0.0000

                TOTAL IN =   215267200.0000                  TOTAL IN =          85.9000

          OUT:                                     OUT:
          ----                                     ----
             STORAGE     =    36078904.0000               STORAGE     =           1.3276
       CONSTANT HEAD     =           0.0000         CONSTANT HEAD     =           0.0000
     HEAD DEP BOUNDS     =     4603647.5000       HEAD DEP BOUNDS     =           0.2880
      STREAM LEAKAGE     =   164139424.0000        STREAM LEAKAGE     =          10.9010
        UZF RECHARGE     =           0.0000          UZF RECHARGE     =           0.0000
               GW ET     =           0.0000                 GW ET     =           0.0000
     SURFACE LEAKAGE     =           0.0000       SURFACE LEAKAGE     =           0.0000
           AG WELLS      =    10448242.0000             AG WELLS      =          73.3833

               TOTAL OUT =   215270224.0000                 TOTAL OUT =          85.8999

                IN - OUT =       -3024.0000                  IN - OUT =       3.8147E-05

     PERCENT DISCREPANCY =          -0.00         PERCENT DISCREPANCY =           0.00






         TIME SUMMARY AT END OF TIME STEP    1 IN STRESS PERIOD    8
                    SECONDS     MINUTES      HOURS       DAYS        YEARS
                    -----------------------------------------------------------
   TIME STEP LENGTH  87667.      1461.1      24.352      1.0147     2.77799E-03
 STRESS PERIOD TIME  87667.      1461.1      24.352      1.0147     2.77799E-03
         TOTAL TIME 1.59541E+07 2.65901E+05  4431.7      184.65     0.50555    
1
 
 SOLVING FOR HEAD 
                                                   Max.-Head-Change                         Max.-Flux-Residual
  Residual-Control   Outer-Iter.   Inner-Iter.     Column Row Layer    Maximum-Head-Change  Column Row Layer    Maximum-Flux-Residual          L2-NORM 
          0                 1           2             5    6     1       0.8280778672E-02       5    6    1         0.4511507069E+00      0.1221464374E+01
          0                 2           2             4    7     1      -0.2923466563E-01       5    6    1        -0.1598276457E+01      0.3910804829E+01
          0                 3           2             4    7     1      -0.4192507288E-01       4    7    1        -0.2250378352E+01      0.5534462001E+01
          0                 4           2             4    7     1       0.4349834929E-01       4    7    1         0.2400055504E+01      0.5879134644E+01
          0                 5           2             4    7     1      -0.1880222482E-01       4    7    1        -0.1066342282E+01      0.2611955951E+01
          0                 6           2             4    7     1       0.2320094228E-03       4    7    1         0.1352254565E-01      0.3313115667E-01
          0                 7           1             4    7     1       0.3410098895E-05       5    8    1         0.1991093000E-03      0.4883411705E-03

    ------------------------------------------------
       NWT REQUIRED            7 OUTER ITERATIONS 
       AND A TOTAL OF         13 INNER ITERATIONS.
    ------------------------------------------------

 NO OUTPUT CONTROL FOR STRESS PERIOD    8   TIME STEP    2
 
 SOLVING FOR HEAD 
                                                   Max.-Head-Change                         Max.-Flux-Residual
  Residual-Control   Outer-Iter.   Inner-Iter.     Column Row Layer    Maximum-Head-Change  Column Row Layer    Maximum-Flux-Residual          L2-NORM 
          0                 1           2             5    6     1       0.9259001536E-02       5    6    1         0.5046535637E+00      0.1324536002E+01
          0                 2           2             4    7     1      -0.9464867798E-01       5    6    1        -0.5112920527E+01      0.1253004276E+02
          0                 3           2             4    7     1      -0.4826619247E+00       4    7    1        -0.2590700092E+02      0.6345577383E+02
          0                 4           2             4    7     1       0.3287073256E-01       4    7    1         0.1813634758E+01      0.4441615480E+01
          0                 5           2             4    7     1      -0.1308274174E-02       4    7    1        -0.7419292928E-01      0.1817040859E+00
          0                 6           1             4    7     1       0.1614355293E-04       4    7    1         0.9407589682E-03      0.2314384117E-02

    ------------------------------------------------
       NWT REQUIRED            6 OUTER ITERATIONS 
       AND A TOTAL OF         11 INNER ITERATIONS.
    ------------------------------------------------

 NO OUTPUT CONTROL FOR STRESS PERIOD    8   TIME STEP    3
 
 SOLVING FOR HEAD 
                                                   Max.-Head-Change                         Max.-Flux-Residual
  Residual-Control   Outer-Iter.   Inner-Iter.     Column Row Layer    Maximum-Head-Change  Column Row Layer    Maximum-Flux-Residual          L2-NORM 
          0                 1           2             5    8     1       0.2507074010E-01       5    8    1         0.1377237213E+01      0.3054497205E+01
          0                 2           2             5    8     1      -0.4003875589E-02       5    8    1        -0.2238298838E+00      0.4999717816E+00
          0                 3           2             4    7     1      -0.6920078243E-01       4    7    1        -0.3714490680E+01      0.9132443207E+01
          0                 4           2             4    7     1       0.7020058976E-01       4    7    1         0.3873363088E+01      0.9487481291E+01
          0                 5           2             4    7     1      -0.4163048737E-02       5    8    1        -0.2361372855E+00      0.5784115229E+00
          0                 6           2             4    7     1      -0.1597782626E-01       4    7    1        -0.9061483262E+00      0.2219598761E+01
          0                 7           2             4    7     1      -0.1445930506E-02       4    7    1        -0.8200111595E-01      0.2008502018E+00
          0                 8           1             4    7     1       0.1787030866E-04       5    8    1         0.1042775566E-02      0.2555116442E-02

    ------------------------------------------------
       NWT REQUIRED            8 OUTER ITERATIONS 
       AND A TOTAL OF         15 INNER ITERATIONS.
    ------------------------------------------------

 NO OUTPUT CONTROL FOR STRESS PERIOD    8   TIME STEP    4
 
 SOLVING FOR HEAD 
                                                   Max.-Head-Change                         Max.-Flux-Residual
  Residual-Control   Outer-Iter.   Inner-Iter.     Column Row Layer    Maximum-Head-Change  Column Row Layer    Maximum-Flux-Residual          L2-NORM 
          0                 1           2             5    8     1       0.2440746150E-01       5    8    1         0.1339695956E+01      0.3002046260E+01
          0                 2           2             4    7     1      -0.9205782836E-01       5    8    1        -0.5037805824E+01      0.1228210557E+02
          0                 3           2             4    7     1      -0.5595346192E+00       4    7    1        -0.3003304897E+02      0.7355587452E+02
          0                 4           2             4    7     1       0.3810588997E-01       5    8    1         0.2123788455E+01      0.5157840535E+01
          0                 5           2             4    7     1      -0.1516637101E-02       5    8    1        -0.8685316658E-01      0.2109987289E+00
          0                 6           1             4    7     1       0.1871466280E-04       5    8    1         0.1099411019E-02      0.2686157555E-02

    ------------------------------------------------
       NWT REQUIRED            6 OUTER ITERATIONS 
       AND A TOTAL OF         11 INNER ITERATIONS.
    ------------------------------------------------

 OUTPUT CONTROL FOR STRESS PERIOD    8   TIME STEP    5
    PRINT BUDGET
    SAVE BUDGET
 UBDSV1 SAVING "         STORAGE" ON UNIT 102 AT TIME STEP 5, STRESS PERIOD 8
 UBDSV2 SAVING "   CONSTANT HEAD" ON UNIT 102 AT TIME STEP 5, STRESS PERIOD 8
 UBDSV1 SAVING "FLOW RIGHT FACE " ON UNIT 102 AT TIME STEP 5, STRESS PERIOD 8
 UBDSV1 SAVING "FLOW FRONT FACE " ON UNIT 102 AT TIME STEP 5, STRESS PERIOD 8

  HEAD DEP BOUNDS   PERIOD    8   STEP     5
 BOUNDARY      1   LAYER   1   ROW    13   COL     1   RATE   -0.287800    
 BOUNDARY      2   LAYER   1   ROW    14   COL     9   RATE    0.287954    



 STREAM LISTING     PERIOD      8   STEP        5

 LAYER ROW COL. STREAM  RCH.  FLOW INTO     FLOW TO   FLOW OUT OF   OVRLND.     DIRECT     STREAM       STREAM     STREAM     STREAM   STREAMBED  STREAMBED
                SEG.NO.  NO.  STRM. RCH.    AQUIFER    STRM. RCH.    RUNOFF     PRECIP       ET          HEAD       DEPTH      WIDTH   CONDCTNC.   GRADIENT

   1    1    1     1     1    2.8125E+01  2.5915E-01   2.7866E+01  0.000E+00  0.000E+00  0.000E+00  1.09427E+03  1.223E+00  1.364E+01  6.137E-02  1.408E+00
   1    2    2     1     2    2.7866E+01  4.0087E-01   2.7465E+01  0.000E+00  0.000E+00  0.000E+00  1.08928E+03  1.218E+00  1.358E+01  9.503E-02  1.406E+00
   1    3    3     1     3    2.7465E+01  3.4143E-01   2.7124E+01  0.000E+00  0.000E+00  0.000E+00  1.08363E+03  1.213E+00  1.351E+01  8.104E-02  1.404E+00
   1    3    4     1     4    2.7124E+01  3.1403E-01   2.6810E+01  0.000E+00  0.000E+00  0.000E+00  1.07862E+03  1.209E+00  1.344E+01  7.461E-02  1.403E+00
   1    4    5     2     1    2.4810E+01  3.2739E-01   2.4482E+01  0.000E+00  0.000E+00  0.000E+00  1.07313E+03  1.197E+00  1.200E+01  7.800E-02  1.399E+00
   1    5    6     2     2    2.4482E+01  2.5133E-01   2.4231E+01  0.000E+00  0.000E+00  0.000E+00  1.06770E+03  1.189E+00  1.200E+01  6.000E-02  1.396E+00
   1    6    6     2     3    2.4231E+01  2.5089E-01   2.3980E+01  0.000E+00  0.000E+00  0.000E+00  1.06297E+03  1.181E+00  1.200E+01  6.000E-02  1.394E+00
   1    7    6     2     4    2.3980E+01  2.5044E-01   2.3730E+01  0.000E+00  0.000E+00  0.000E+00  1.05825E+03  1.174E+00  1.200E+01  6.000E-02  1.391E+00
   1    8    6     2     5    2.3730E+01  2.5000E-01   2.3480E+01  0.000E+00  0.000E+00  0.000E+00  1.05353E+03  1.167E+00  1.200E+01  6.000E-02  1.389E+00
   1    3    5     3     1    2.0000E+00  2.8252E-01   1.7175E+00  0.000E+00  0.000E+00  0.000E+00  1.07555E+03  1.909E+00  9.636E+00  7.227E-02  1.955E+00
   1    3    6     3     2    1.7175E+00  2.4905E-01   1.4684E+00  0.000E+00  0.000E+00  0.000E+00  1.07264E+03  1.727E+00  8.909E+00  6.682E-02  1.864E+00
   1    3    7     3     3    1.4684E+00  1.9718E-01   1.2712E+00  0.000E+00  0.000E+00  0.000E+00  1.06987E+03  1.555E+00  8.218E+00  5.547E-02  1.777E+00
   1    4    8     3     4    1.2712E+00  2.2567E-01   1.0456E+00  0.000E+00  0.000E+00  0.000E+00  1.06682E+03  1.364E+00  7.455E+00  6.709E-02  1.682E+00
   1    5    8     3     5    1.0456E+00  1.5790E-01   8.8768E-01  0.000E+00  0.000E+00  0.000E+00  1.06362E+03  1.164E+00  6.655E+00  4.991E-02  1.582E+00
   1    6    8     3     6    8.8768E-01  5.5980E-02   8.3170E-01  0.000E+00  0.000E+00  0.000E+00  1.06158E+03  1.036E+00  6.145E+00  1.844E-02  1.518E+00
   1    5   10     4     1    1.0000E+01  9.0919E-02   9.9091E+00  0.000E+00  0.000E+00  0.000E+00  1.07836E+03  6.368E-01  1.000E+01  2.500E-02  1.212E+00
   1    5    9     4     2    9.9091E+00  1.8158E-01   9.7275E+00  0.000E+00  0.000E+00  0.000E+00  1.07154E+03  6.315E-01  1.000E+01  5.000E-02  1.211E+00
   1    6    8     4     3    9.7275E+00  1.2689E-01   9.6006E+00  0.000E+00  0.000E+00  0.000E+00  1.06381E+03  6.256E-01  1.000E+01  3.500E-02  1.209E+00
   1    6    8     5     1    1.0432E+01  2.2686E-01   1.0205E+01  0.000E+00  0.000E+00  0.000E+00  1.05868E+03  6.790E-01  1.542E+01  6.166E-02  1.226E+00
   1    7    7     5     2    1.0205E+01  2.7894E-01   9.9265E+00  0.000E+00  0.000E+00  0.000E+00  1.05417E+03  6.732E-01  1.519E+01  7.594E-02  1.224E+00
   1    8    7     5     3    9.9265E+00  1.9221E-01   9.7343E+00  0.000E+00  0.000E+00  0.000E+00  1.04992E+03  6.676E-01  1.497E+01  5.241E-02  1.223E+00
   1    8    6     5     4    9.7343E+00  1.3577E-01   9.5985E+00  0.000E+00  0.000E+00  0.000E+00  1.04691E+03  6.637E-01  1.482E+01  3.706E-02  1.221E+00
   1    9    6     6     1    9.5985E+00  2.2097E-01   9.3776E+00  0.000E+00  0.000E+00  0.000E+00  1.04341E+03  6.828E-01  1.200E+01  6.000E-02  1.228E+00
   1   10    7     6     2    9.3776E+00  2.2039E-01   9.1572E+00  0.000E+00  0.000E+00  0.000E+00  1.03885E+03  6.732E-01  1.200E+01  6.000E-02  1.224E+00
   1   11    7     6     3    9.1572E+00  2.1981E-01   8.9374E+00  0.000E+00  0.000E+00  0.000E+00  1.03430E+03  6.636E-01  1.200E+01  6.000E-02  1.221E+00
   1   12    7     6     4    8.9374E+00  2.1923E-01   8.7181E+00  0.000E+00  0.000E+00  0.000E+00  1.02974E+03  6.539E-01  1.200E+01  6.000E-02  1.218E+00
   1   13    7     6     5    8.7181E+00 -6.9946E-02   8.7881E+00  0.000E+00  0.000E+00  0.000E+00  1.02656E+03  6.505E-01  1.200E+01  2.400E-01 -9.715E-02
   1   14    9     7     1    1.5000E+02  1.3681E+00   1.4863E+02  0.000E+00  0.000E+00  0.000E+00  1.03987E+03  2.288E+00  5.529E+01  5.593E-01  8.153E-01
   1   13    8     7     2    1.4863E+02  1.9152E+00   1.4672E+02  0.000E+00  0.000E+00  0.000E+00  1.03478E+03  2.279E+00  5.526E+01  6.148E-01  1.038E+00
   1   13    7     7     3    1.4672E+02  1.5847E+00   1.4513E+02  0.000E+00  0.000E+00  0.000E+00  1.02969E+03  2.270E+00  5.521E+01  5.584E-01  9.459E-01
   1   13    6     8     1    1.5392E+02  9.3465E-01   1.5299E+02  0.000E+00  0.000E+00  0.000E+00  1.02472E+03  2.841E+00  4.119E+01  4.198E-01  7.422E-01
   1   13    5     8     2    1.5299E+02  1.9615E-01   1.5279E+02  0.000E+00  0.000E+00  0.000E+00  1.01846E+03  2.837E+00  4.114E+01  4.192E-01  1.560E-01
   1   13    4     8     3    1.5279E+02 -2.3909E+00   1.5518E+02  0.000E+00  0.000E+00  0.000E+00  1.01222E+03  2.845E+00  4.125E+01  4.203E+00 -1.896E-01
   1   13    3     8     4    1.5518E+02 -3.6504E+00   1.5883E+02  0.000E+00  0.000E+00  0.000E+00  1.00599E+03  2.865E+00  4.155E+01  4.234E+00 -2.874E-01
   1   13    2     8     5    1.5883E+02 -2.6467E+00   1.6148E+02  0.000E+00  0.000E+00  0.000E+00  9.99762E+02  2.887E+00  4.186E+01  4.266E+00 -2.068E-01
   1   13    1     8     6    1.6148E+02 -2.0484E+00   1.6353E+02  0.000E+00  0.000E+00  0.000E+00  9.94778E+02  2.903E+00  4.209E+01  2.573E+00 -2.653E-01
   1    8    6     9     1    2.3480E+01  0.0000E+00   2.3480E+01  0.000E+00  0.000E+00  0.000E+00  1.08253E+03  3.782E+00  4.000E+00  0.000E+00  2.261E+00
   1    8    5     9     2    2.3480E+01  0.0000E+00   2.3480E+01  0.000E+00  0.000E+00  0.000E+00  1.08203E+03  3.782E+00  4.000E+00  0.000E+00  2.261E+00



 UBDSV3 SAVING "           GW ET" ON UNIT  61 AT TIME STEP 5, STRESS PERIOD 8
 UBDSV3 SAVING "    UZF RECHARGE" ON UNIT  61 AT TIME STEP 5, STRESS PERIOD 8
 UBDSV3 SAVING " SURFACE LEAKAGE" ON UNIT  61 AT TIME STEP 5, STRESS PERIOD 8
 UBDSV3 SAVING "       HORT+DUNN" ON UNIT  61 AT TIME STEP 5, STRESS PERIOD 8
 UBDSV3 SAVING "  STORAGE CHANGE" ON UNIT  61 AT TIME STEP 5, STRESS PERIOD 8


UNSATURATED ZONE PACKAGE VOLUMETRIC BUDGET FOR  TIME STEP     5 STRESS PERIOD    8
  ------------------------------------------------------------------------------



     CUMULATIVE VOLUMES      L**3       RATES FOR THIS TIME STEP      L**3/T
     ------------------                 ------------------------

           IN:                                      IN:
           ---                                      ---
        INFILTRATION =   157132022.4871          INFILTRATION =         236.0234

          OUT:                                     OUT:
          ----                                     ----
              UZF ET =   128464365.2380                UZF ET =          60.8175
        UZF RECHARGE =       73224.0000          UZF RECHARGE =       0.0000E+00

            IN - OUT =    28594433.2491              IN - OUT =         175.2059

          STORAGE:                                 STORAGE:
          --------                                 --------
      STORAGE CHANGE =    28594647.3983        STORAGE CHANGE =         175.2059

 PERCENT DISCREPANCY IS DIFFERENCE BETWEEN IN-OUT MINUS CHANGE IN STORAGE
 DIVIDED BY THE AVERAGE OF IN AND OUT TIMES 100

 PERCENT DISCREPANCY =          -0.00     PERCENT DISCREPANCY =           0.00






 

            AG WELLS      PERIOD    8   STEP   5
 AG WELL      1   LAYER   1   ROW     6   COL     4   RATE    -35.2826    
 AG WELL      2   LAYER   1   ROW     6   COL     5   RATE    -35.2826    
 AG WELL      3   LAYER   1   ROW     7   COL     4   RATE    -35.2826    
 AG WELL      4   LAYER   1   ROW     7   COL     5   RATE    -35.2826    
 AG WELL      5   LAYER   1   ROW     8   COL     4   RATE    -35.2826    
 AG WELL      6   LAYER   1   ROW     8   COL     5   RATE    -35.2826    
 
 

   DIVERSION SEGMENTS     PERIOD    8   STEP   5
 SEGMENT      9   RATE     23.4796    
 
 

        SW IRRIGATION     PERIOD    8   STEP   5
 SEGMENT      9   ROW     6   COL     4   RATE     3.91334    
 SEGMENT      9   ROW     6   COL     5   RATE     3.91334    
 SEGMENT      9   ROW     7   COL     4   RATE     3.91334    
 SEGMENT      9   ROW     7   COL     5   RATE     3.91334    
 SEGMENT      9   ROW     8   COL     4   RATE     3.91334    
 SEGMENT      9   ROW     8   COL     5   RATE     3.91334    
 
 

        GW IRRIGATION     PERIOD    8   STEP   5
 AG WELL      1   ROW     6   COL     4   RATE     35.2826    
 AG WELL      2   ROW     6   COL     5   RATE     35.2826    
 AG WELL      3   ROW     7   COL     4   RATE     35.2826    
 AG WELL      4   ROW     7   COL     5   RATE     35.2826    
 AG WELL      5   ROW     8   COL     4   RATE     35.2826    
 AG WELL      6   ROW     8   COL     5   RATE     35.2826    
 
1
  VOLUMETRIC BUDGET FOR AGRICULTURAL FIELDS AT  END OF TIME STEP    5, STRESS PERIOD   8
  ------------------------------------------------------------------------------

     CUMULATIVE VOLUMES      L**3       RATES FOR THIS TIME STEP      L**3/T
     ------------------                 ------------------------

           IN:                                      IN:
           ---                                      ---
               AG WELLS  =    47543108.0000                 AG WELLS  =         211.6958
      DIVERSION SEGMENTS =    95804016.0000        DIVERSION SEGMENTS =          23.4796
       IRRIGATION PONDS  =           0.0000         IRRIGATION PONDS  =           0.0000
           GW IRRIGATION =           0.0000             GW IRRIGATION =           0.0000
           SW IRRIGATION =           0.0000             SW IRRIGATION =           0.0000
        SYSTEM LOSSES GW =           0.0000          SYSTEM LOSSES GW =           0.0000
        SYSTEM LOSSES SW =           0.0000          SYSTEM LOSSES SW =           0.0000

                TOTAL IN =   143347120.0000                  TOTAL IN =         235.1754

          OUT:                                     OUT:
          ----                                     ----
               AG WELLS  =           0.0000                 AG WELLS  =           0.0000
      DIVERSION SEGMENTS =           0.0000        DIVERSION SEGMENTS =           0.0000
       IRRIGATION PONDS  =           0.0000         IRRIGATION PONDS  =           0.0000
           GW IRRIGATION =    47543108.0000             GW IRRIGATION =         211.6958
           SW IRRIGATION =    95805936.0000             SW IRRIGATION =          23.4801
        SYSTEM LOSSES GW =           0.0000          SYSTEM LOSSES GW =           0.0000
        SYSTEM LOSSES SW =           0.0000          SYSTEM LOSSES SW =           0.0000

               TOTAL OUT =   143349040.0000                 TOTAL OUT =         235.1759

                IN - OUT =       -1920.0000                  IN - OUT =      -4.7302E-04

     PERCENT DISCREPANCY =          -0.00         PERCENT DISCREPANCY =          -0.00



1
  VOLUMETRIC BUDGET FOR ENTIRE MODEL AT END OF TIME STEP    5, STRESS PERIOD   8
  ------------------------------------------------------------------------------

     CUMULATIVE VOLUMES      L**3       RATES FOR THIS TIME STEP      L**3/T
     ------------------                 ------------------------

           IN:                                      IN:
           ---                                      ---
             STORAGE     =    58678928.0000               STORAGE     =         211.6990
       CONSTANT HEAD     =           0.0000         CONSTANT HEAD     =           0.0000
     HEAD DEP BOUNDS     =     4693688.0000       HEAD DEP BOUNDS     =           0.2880
      STREAM LEAKAGE     =   193253696.0000        STREAM LEAKAGE     =          11.9261
        UZF RECHARGE     =       73223.9531          UZF RECHARGE     =           0.0000
               GW ET     =           0.0000                 GW ET     =           0.0000
     SURFACE LEAKAGE     =           0.0000       SURFACE LEAKAGE     =           0.0000
           AG WELLS      =           0.0000             AG WELLS      =           0.0000

                TOTAL IN =   256699520.0000                  TOTAL IN =         223.9131

          OUT:                                     OUT:
          ----                                     ----
             STORAGE     =    36514240.0000               STORAGE     =           1.1230
       CONSTANT HEAD     =           0.0000         CONSTANT HEAD     =           0.0000
     HEAD DEP BOUNDS     =     4704600.0000       HEAD DEP BOUNDS     =           0.2878
      STREAM LEAKAGE     =   167940560.0000        STREAM LEAKAGE     =          10.8064
        UZF RECHARGE     =           0.0000          UZF RECHARGE     =           0.0000
               GW ET     =           0.0000                 GW ET     =           0.0000
     SURFACE LEAKAGE     =           0.0000       SURFACE LEAKAGE     =           0.0000
           AG WELLS      =    47543108.0000             AG WELLS      =         211.6958

               TOTAL OUT =   256702496.0000                 TOTAL OUT =         223.9130

                IN - OUT =       -2976.0000                  IN - OUT =       9.1553E-05

     PERCENT DISCREPANCY =          -0.00         PERCENT DISCREPANCY =           0.00






         TIME SUMMARY AT END OF TIME STEP    5 IN STRESS PERIOD    8
                    SECONDS     MINUTES      HOURS       DAYS        YEARS
                    -----------------------------------------------------------
   TIME STEP LENGTH  87667.      1461.1      24.352      1.0147     2.77799E-03
 STRESS PERIOD TIME 4.38333E+05  7305.6      121.76      5.0733     1.38899E-02
         TOTAL TIME 1.63048E+07 2.71746E+05  4529.1      188.71     0.51667    
1
 
 SOLVING FOR HEAD 
                                                   Max.-Head-Change                         Max.-Flux-Residual
  Residual-Control   Outer-Iter.   Inner-Iter.     Column Row Layer    Maximum-Head-Change  Column Row Layer    Maximum-Flux-Residual          L2-NORM 
          0                 1           2             5    8     1       0.4191228413E-01       5    8    1         0.2306492819E+01      0.5027835357E+01
          0                 2           2             5    8     1      -0.5838054365E-02       5    8    1        -0.3276257878E+00      0.7117962567E+00
          0                 3           2             4    7     1      -0.6460607999E-01       4    7    1        -0.3467942365E+01      0.8519209084E+01
          0                 4           2             4    7     1       0.6553527977E-01       4    7    1         0.3615934253E+01      0.8856261190E+01
          0                 5           2             4    7     1      -0.6626943784E-03       5    8    1        -0.3759737609E-01      0.9266246934E-01
          0                 6           2             4    7     1      -0.1617400988E-01       4    8    1        -0.9172682168E+00      0.2246838968E+01
          0                 7           2             4    7     1       0.1997364050E-03       5    8    1         0.1165414527E-01      0.2855094038E-01
          0                 8           1             4    7     1       0.2933809270E-05       5    8    1         0.1711790669E-03      0.4193636646E-03

    ------------------------------------------------
       NWT REQUIRED            8 OUTER ITERATIONS 
       AND A TOTAL OF         15 INNER ITERATIONS.
    ------------------------------------------------

 NO OUTPUT CONTROL FOR STRESS PERIOD    8   TIME STEP    6
 
 SOLVING FOR HEAD 
                                                   Max.-Head-Change                         Max.-Flux-Residual
  Residual-Control   Outer-Iter.   Inner-Iter.     Column Row Layer    Maximum-Head-Change  Column Row Layer    Maximum-Flux-Residual          L2-NORM 
          0                 1           2             5    8     1       0.4016037221E-01       5    8    1         0.2208121091E+01      0.4862809640E+01
          0                 2           2             5    6     1      -0.9290839909E-01       5    8    1        -0.5116903247E+01      0.1241110484E+02
          0                 3           2             4    7     1      -0.5714018957E+00       4    7    1        -0.3066988224E+02      0.7510940733E+02
          0                 4           2             4    7     1       0.3891398606E-01       4    7    1         0.2147111443E+01      0.5258844950E+01
          0                 5           2             4    7     1      -0.1548799880E-02       4    7    1        -0.8783970564E-01      0.2151760554E+00
          0                 6           1             4    7     1       0.1911153784E-04       5    8    1         0.1114232135E-02      0.2729534562E-02

    ------------------------------------------------
       NWT REQUIRED            6 OUTER ITERATIONS 
       AND A TOTAL OF         11 INNER ITERATIONS.
    ------------------------------------------------

 NO OUTPUT CONTROL FOR STRESS PERIOD    8   TIME STEP    7
 
 SOLVING FOR HEAD 
                                                   Max.-Head-Change                         Max.-Flux-Residual
  Residual-Control   Outer-Iter.   Inner-Iter.     Column Row Layer    Maximum-Head-Change  Column Row Layer    Maximum-Flux-Residual          L2-NORM 
          0                 1           2             5    8     1       0.5739463505E-01       5    8    1         0.3157731149E+01      0.6874088175E+01
          0                 2           2             5    8     1      -0.7238021271E-02       5    8    1        -0.4069096898E+00      0.8793035433E+00
          0                 3           2             4    7     1      -0.6417595706E-01       4    7    1        -0.3444909341E+01      0.8456563965E+01
          0                 4           2             4    7     1       0.6535096414E-01       4    7    1         0.3605740952E+01      0.8830859274E+01
          0                 5           2             4    7     1      -0.9625470028E-03       4    7    1        -0.5459338833E-01      0.1355170078E+00
          0                 6           2             4    7     1      -0.7296467867E-02       4    8    1        -0.4137974323E+00      0.1013592492E+01
          0                 7           2             4    7     1      -0.1661499091E-02       4    7    1        -0.9422559917E-01      0.2307988007E+00
          0                 8           2             4    7     1      -0.1682029527E-01       4    7    1        -0.9538938135E+00      0.2336551602E+01
          0                 9           2             4    7     1       0.2080447577E-03       5    8    1         0.1213857368E-01      0.2973769083E-01
          0                10           1             4    7     1       0.3051809755E-05       5    8    1         0.1780589891E-03      0.4362196241E-03

    ------------------------------------------------
       NWT REQUIRED           10 OUTER ITERATIONS 
       AND A TOTAL OF         19 INNER ITERATIONS.
    ------------------------------------------------

 NO OUTPUT CONTROL FOR STRESS PERIOD    8   TIME STEP    8
 
 SOLVING FOR HEAD 
                                                   Max.-Head-Change                         Max.-Flux-Residual
  Residual-Control   Outer-Iter.   Inner-Iter.     Column Row Layer    Maximum-Head-Change  Column Row Layer    Maximum-Flux-Residual          L2-NORM 
          0                 1           2             5    8     1       0.5510389167E-01       5    8    1         0.3029069609E+01      0.6658517357E+01
          0                 2           2             5    6     1      -0.9472731988E-01       5    8    1        -0.5222063956E+01      0.1261219507E+02
          0                 3           2             4    7     1      -0.4919637315E+00       4    7    1        -0.2640593036E+02      0.6465930207E+02
          0                 4           2             4    7     1       0.3350428060E-01       4    7    1         0.1848620009E+01      0.4527207268E+01
          0                 5           2             4    7     1      -0.1333489332E-02       4    7    1        -0.7562818009E-01      0.1852397486E+00
          0                 6           1             4    7     1       0.1645469831E-04       4    7    1         0.9591676014E-03      0.2349793339E-02

    ------------------------------------------------
       NWT REQUIRED            6 OUTER ITERATIONS 
       AND A TOTAL OF         11 INNER ITERATIONS.
    ------------------------------------------------

 NO OUTPUT CONTROL FOR STRESS PERIOD    8   TIME STEP    9
 
 SOLVING FOR HEAD 
                                                   Max.-Head-Change                         Max.-Flux-Residual
  Residual-Control   Outer-Iter.   Inner-Iter.     Column Row Layer    Maximum-Head-Change  Column Row Layer    Maximum-Flux-Residual          L2-NORM 
          0                 1           2             5    8     1       0.6925338341E-01       5    8    1         0.3807935191E+01      0.8332013691E+01
          0                 2           2             5    8     1      -0.8401321885E-02       5    8    1        -0.4724673625E+00      0.1024635492E+01
          0                 3           2             4    7     1      -0.6850842775E-01       4    7    1        -0.3677475101E+01      0.9024851713E+01
          0                 4           2             4    7     1       0.6990318027E-01       4    7    1         0.3856878716E+01      0.9445886703E+01
          0                 5           2             4    7     1      -0.3563643741E-02       4    7    1        -0.2021070041E+00      0.4950835185E+00
          0                 6           2             4    7     1      -0.1455574074E-02       4    7    1        -0.8254766655E-01      0.2021986293E+00
          0                 7           2             4    7     1      -0.1650793917E-02       4    7    1        -0.9361803148E-01      0.2293151359E+00
          0                 8           2             4    7     1      -0.1620420289E-01       4    7    1        -0.9189468142E+00      0.2250949366E+01
          0                 9           2             4    7     1       0.2004245714E-03       5    8    1         0.1169387218E-01      0.2864822860E-01
          0                10           1             4    7     1       0.2940028823E-05       5    8    1         0.1715357225E-03      0.4202367152E-03

    ------------------------------------------------
       NWT REQUIRED           10 OUTER ITERATIONS 
       AND A TOTAL OF         19 INNER ITERATIONS.
    ------------------------------------------------

 OUTPUT CONTROL FOR STRESS PERIOD    8   TIME STEP   10
    PRINT BUDGET
    SAVE BUDGET
 UBDSV1 SAVING "         STORAGE" ON UNIT 102 AT TIME STEP 10, STRESS PERIOD 8
 UBDSV2 SAVING "   CONSTANT HEAD" ON UNIT 102 AT TIME STEP 10, STRESS PERIOD 8
 UBDSV1 SAVING "FLOW RIGHT FACE " ON UNIT 102 AT TIME STEP 10, STRESS PERIOD 8
 UBDSV1 SAVING "FLOW FRONT FACE " ON UNIT 102 AT TIME STEP 10, STRESS PERIOD 8

  HEAD DEP BOUNDS   PERIOD    8   STEP    10
 BOUNDARY      1   LAYER   1   ROW    13   COL     1   RATE   -0.287553    
 BOUNDARY      2   LAYER   1   ROW    14   COL     9   RATE    0.287957    



 STREAM LISTING     PERIOD      8   STEP       10

 LAYER ROW COL. STREAM  RCH.  FLOW INTO     FLOW TO   FLOW OUT OF   OVRLND.     DIRECT     STREAM       STREAM     STREAM     STREAM   STREAMBED  STREAMBED
                SEG.NO.  NO.  STRM. RCH.    AQUIFER    STRM. RCH.    RUNOFF     PRECIP       ET          HEAD       DEPTH      WIDTH   CONDCTNC.   GRADIENT

   1    1    1     1     1    2.8125E+01  2.5915E-01   2.7866E+01  0.000E+00  0.000E+00  0.000E+00  1.09427E+03  1.223E+00  1.364E+01  6.137E-02  1.408E+00
   1    2    2     1     2    2.7866E+01  4.0087E-01   2.7465E+01  0.000E+00  0.000E+00  0.000E+00  1.08928E+03  1.218E+00  1.358E+01  9.503E-02  1.406E+00
   1    3    3     1     3    2.7465E+01  3.4143E-01   2.7124E+01  0.000E+00  0.000E+00  0.000E+00  1.08363E+03  1.213E+00  1.351E+01  8.104E-02  1.404E+00
   1    3    4     1     4    2.7124E+01  3.1403E-01   2.6810E+01  0.000E+00  0.000E+00  0.000E+00  1.07862E+03  1.209E+00  1.344E+01  7.461E-02  1.403E+00
   1    4    5     2     1    2.4810E+01  3.2739E-01   2.4482E+01  0.000E+00  0.000E+00  0.000E+00  1.07313E+03  1.197E+00  1.200E+01  7.800E-02  1.399E+00
   1    5    6     2     2    2.4482E+01  2.5133E-01   2.4231E+01  0.000E+00  0.000E+00  0.000E+00  1.06770E+03  1.189E+00  1.200E+01  6.000E-02  1.396E+00
   1    6    6     2     3    2.4231E+01  2.5089E-01   2.3980E+01  0.000E+00  0.000E+00  0.000E+00  1.06297E+03  1.181E+00  1.200E+01  6.000E-02  1.394E+00
   1    7    6     2     4    2.3980E+01  2.5044E-01   2.3730E+01  0.000E+00  0.000E+00  0.000E+00  1.05825E+03  1.174E+00  1.200E+01  6.000E-02  1.391E+00
   1    8    6     2     5    2.3730E+01  2.5000E-01   2.3480E+01  0.000E+00  0.000E+00  0.000E+00  1.05353E+03  1.167E+00  1.200E+01  6.000E-02  1.389E+00
   1    3    5     3     1    2.0000E+00  2.8252E-01   1.7175E+00  0.000E+00  0.000E+00  0.000E+00  1.07555E+03  1.909E+00  9.636E+00  7.227E-02  1.955E+00
   1    3    6     3     2    1.7175E+00  2.4905E-01   1.4684E+00  0.000E+00  0.000E+00  0.000E+00  1.07264E+03  1.727E+00  8.909E+00  6.682E-02  1.864E+00
   1    3    7     3     3    1.4684E+00  1.9718E-01   1.2712E+00  0.000E+00  0.000E+00  0.000E+00  1.06987E+03  1.555E+00  8.218E+00  5.547E-02  1.777E+00
   1    4    8     3     4    1.2712E+00  2.2567E-01   1.0456E+00  0.000E+00  0.000E+00  0.000E+00  1.06682E+03  1.364E+00  7.455E+00  6.709E-02  1.682E+00
   1    5    8     3     5    1.0456E+00  1.5790E-01   8.8768E-01  0.000E+00  0.000E+00  0.000E+00  1.06362E+03  1.164E+00  6.655E+00  4.991E-02  1.582E+00
   1    6    8     3     6    8.8768E-01  5.5980E-02   8.3170E-01  0.000E+00  0.000E+00  0.000E+00  1.06158E+03  1.036E+00  6.145E+00  1.844E-02  1.518E+00
   1    5   10     4     1    1.0000E+01  9.0919E-02   9.9091E+00  0.000E+00  0.000E+00  0.000E+00  1.07836E+03  6.368E-01  1.000E+01  2.500E-02  1.212E+00
   1    5    9     4     2    9.9091E+00  1.8158E-01   9.7275E+00  0.000E+00  0.000E+00  0.000E+00  1.07154E+03  6.315E-01  1.000E+01  5.000E-02  1.211E+00
   1    6    8     4     3    9.7275E+00  1.2689E-01   9.6006E+00  0.000E+00  0.000E+00  0.000E+00  1.06381E+03  6.256E-01  1.000E+01  3.500E-02  1.209E+00
   1    6    8     5     1    1.0432E+01  2.2686E-01   1.0205E+01  0.000E+00  0.000E+00  0.000E+00  1.05868E+03  6.790E-01  1.542E+01  6.166E-02  1.226E+00
   1    7    7     5     2    1.0205E+01  2.7894E-01   9.9265E+00  0.000E+00  0.000E+00  0.000E+00  1.05417E+03  6.732E-01  1.519E+01  7.594E-02  1.224E+00
   1    8    7     5     3    9.9265E+00  1.9221E-01   9.7343E+00  0.000E+00  0.000E+00  0.000E+00  1.04992E+03  6.676E-01  1.497E+01  5.241E-02  1.223E+00
   1    8    6     5     4    9.7343E+00  1.3577E-01   9.5985E+00  0.000E+00  0.000E+00  0.000E+00  1.04691E+03  6.637E-01  1.482E+01  3.706E-02  1.221E+00
   1    9    6     6     1    9.5985E+00  2.2097E-01   9.3776E+00  0.000E+00  0.000E+00  0.000E+00  1.04341E+03  6.828E-01  1.200E+01  6.000E-02  1.228E+00
   1   10    7     6     2    9.3776E+00  2.2039E-01   9.1572E+00  0.000E+00  0.000E+00  0.000E+00  1.03885E+03  6.732E-01  1.200E+01  6.000E-02  1.224E+00
   1   11    7     6     3    9.1572E+00  2.1981E-01   8.9374E+00  0.000E+00  0.000E+00  0.000E+00  1.03430E+03  6.636E-01  1.200E+01  6.000E-02  1.221E+00
   1   12    7     6     4    8.9374E+00  2.1923E-01   8.7181E+00  0.000E+00  0.000E+00  0.000E+00  1.02974E+03  6.539E-01  1.200E+01  6.000E-02  1.218E+00
   1   13    7     6     5    8.7181E+00 -6.9099E-02   8.7872E+00  0.000E+00  0.000E+00  0.000E+00  1.02656E+03  6.505E-01  1.200E+01  2.400E-01 -9.597E-02
   1   14    9     7     1    1.5000E+02  1.3681E+00   1.4863E+02  0.000E+00  0.000E+00  0.000E+00  1.03987E+03  2.288E+00  5.529E+01  5.593E-01  8.154E-01
   1   13    8     7     2    1.4863E+02  1.9154E+00   1.4672E+02  0.000E+00  0.000E+00  0.000E+00  1.03478E+03  2.279E+00  5.526E+01  6.148E-01  1.039E+00
   1   13    7     7     3    1.4672E+02  1.5866E+00   1.4513E+02  0.000E+00  0.000E+00  0.000E+00  1.02969E+03  2.270E+00  5.521E+01  5.584E-01  9.471E-01
   1   13    6     8     1    1.5392E+02  9.3615E-01   1.5298E+02  0.000E+00  0.000E+00  0.000E+00  1.02472E+03  2.841E+00  4.119E+01  4.198E-01  7.434E-01
   1   13    5     8     2    1.5298E+02  1.9775E-01   1.5278E+02  0.000E+00  0.000E+00  0.000E+00  1.01846E+03  2.837E+00  4.114E+01  4.192E-01  1.572E-01
   1   13    4     8     3    1.5278E+02 -2.3690E+00   1.5515E+02  0.000E+00  0.000E+00  0.000E+00  1.01222E+03  2.845E+00  4.125E+01  4.203E+00 -1.879E-01
   1   13    3     8     4    1.5515E+02 -3.6284E+00   1.5878E+02  0.000E+00  0.000E+00  0.000E+00  1.00599E+03  2.865E+00  4.155E+01  4.234E+00 -2.857E-01
   1   13    2     8     5    1.5878E+02 -2.6210E+00   1.6140E+02  0.000E+00  0.000E+00  0.000E+00  9.99761E+02  2.886E+00  4.185E+01  4.265E+00 -2.048E-01
   1   13    1     8     6    1.6140E+02 -2.0327E+00   1.6343E+02  0.000E+00  0.000E+00  0.000E+00  9.94777E+02  2.902E+00  4.208E+01  2.573E+00 -2.633E-01
   1    8    6     9     1    2.3480E+01  0.0000E+00   2.3480E+01  0.000E+00  0.000E+00  0.000E+00  1.08253E+03  3.782E+00  4.000E+00  0.000E+00  2.261E+00
   1    8    5     9     2    2.3480E+01  0.0000E+00   2.3480E+01  0.000E+00  0.000E+00  0.000E+00  1.08203E+03  3.782E+00  4.000E+00  0.000E+00  2.261E+00



 UBDSV3 SAVING "           GW ET" ON UNIT  61 AT TIME STEP 10, STRESS PERIOD 8
 UBDSV3 SAVING "    UZF RECHARGE" ON UNIT  61 AT TIME STEP 10, STRESS PERIOD 8
 UBDSV3 SAVING " SURFACE LEAKAGE" ON UNIT  61 AT TIME STEP 10, STRESS PERIOD 8
 UBDSV3 SAVING "       HORT+DUNN" ON UNIT  61 AT TIME STEP 10, STRESS PERIOD 8
 UBDSV3 SAVING "  STORAGE CHANGE" ON UNIT  61 AT TIME STEP 10, STRESS PERIOD 8


UNSATURATED ZONE PACKAGE VOLUMETRIC BUDGET FOR  TIME STEP    10 STRESS PERIOD    8
  ------------------------------------------------------------------------------



     CUMULATIVE VOLUMES      L**3       RATES FOR THIS TIME STEP      L**3/T
     ------------------                 ------------------------

           IN:                                      IN:
           ---                                      ---
        INFILTRATION =   205396604.1540          INFILTRATION =          32.2928

          OUT:                                     OUT:
          ----                                     ----
              UZF ET =   155135628.4674                UZF ET =          60.8611
        UZF RECHARGE =       73224.0000          UZF RECHARGE =       0.0000E+00

            IN - OUT =    50187751.6866              IN - OUT =         -28.5683

          STORAGE:                                 STORAGE:
          --------                                 --------
      STORAGE CHANGE =    50187965.9916        STORAGE CHANGE =         -28.5683

 PERCENT DISCREPANCY IS DIFFERENCE BETWEEN IN-OUT MINUS CHANGE IN STORAGE
 DIVIDED BY THE AVERAGE OF IN AND OUT TIMES 100

 PERCENT DISCREPANCY =          -0.00     PERCENT DISCREPANCY =           0.00






 

            AG WELLS      PERIOD    8   STEP  10
 AG WELL      1   LAYER   1   ROW     6   COL     4   RATE    -1.32755    
 AG WELL      2   LAYER   1   ROW     6   COL     5   RATE    -1.32755    
 AG WELL      3   LAYER   1   ROW     7   COL     4   RATE    -1.32755    
 AG WELL      4   LAYER   1   ROW     7   COL     5   RATE    -1.32755    
 AG WELL      5   LAYER   1   ROW     8   COL     4   RATE    -1.32755    
 AG WELL      6   LAYER   1   ROW     8   COL     5   RATE    -1.32755    
 
 

   DIVERSION SEGMENTS     PERIOD    8   STEP  10
 SEGMENT      9   RATE     23.4796    
 
 

        SW IRRIGATION     PERIOD    8   STEP  10
 SEGMENT      9   ROW     6   COL     4   RATE     3.91334    
 SEGMENT      9   ROW     6   COL     5   RATE     3.91334    
 SEGMENT      9   ROW     7   COL     4   RATE     3.91334    
 SEGMENT      9   ROW     7   COL     5   RATE     3.91334    
 SEGMENT      9   ROW     8   COL     4   RATE     3.91334    
 SEGMENT      9   ROW     8   COL     5   RATE     3.91334    
 
 

        GW IRRIGATION     PERIOD    8   STEP  10
 AG WELL      1   ROW     6   COL     4   RATE     1.32755    
 AG WELL      2   ROW     6   COL     5   RATE     1.32755    
 AG WELL      3   ROW     7   COL     4   RATE     1.32755    
 AG WELL      4   ROW     7   COL     5   RATE     1.32755    
 AG WELL      5   ROW     8   COL     4   RATE     1.32755    
 AG WELL      6   ROW     8   COL     5   RATE     1.32755    
 
1
  VOLUMETRIC BUDGET FOR AGRICULTURAL FIELDS AT  END OF TIME STEP   10, STRESS PERIOD   8
  ------------------------------------------------------------------------------

     CUMULATIVE VOLUMES      L**3       RATES FOR THIS TIME STEP      L**3/T
     ------------------                 ------------------------

           IN:                                      IN:
           ---                                      ---
               AG WELLS  =    85144120.0000                 AG WELLS  =           7.9653
      DIVERSION SEGMENTS =   106095896.0000        DIVERSION SEGMENTS =          23.4796
       IRRIGATION PONDS  =           0.0000         IRRIGATION PONDS  =           0.0000
           GW IRRIGATION =           0.0000             GW IRRIGATION =           0.0000
           SW IRRIGATION =           0.0000             SW IRRIGATION =           0.0000
        SYSTEM LOSSES GW =           0.0000          SYSTEM LOSSES GW =           0.0000
        SYSTEM LOSSES SW =           0.0000          SYSTEM LOSSES SW =           0.0000

                TOTAL IN =   191240016.0000                  TOTAL IN =          31.4449

          OUT:                                     OUT:
          ----                                     ----
               AG WELLS  =           0.0000                 AG WELLS  =           0.0000
      DIVERSION SEGMENTS =           0.0000        DIVERSION SEGMENTS =           0.0000
       IRRIGATION PONDS  =           0.0000         IRRIGATION PONDS  =           0.0000
           GW IRRIGATION =    85144120.0000             GW IRRIGATION =           7.9653
           SW IRRIGATION =   106098016.0000             SW IRRIGATION =          23.4801
        SYSTEM LOSSES GW =           0.0000          SYSTEM LOSSES GW =           0.0000
        SYSTEM LOSSES SW =           0.0000          SYSTEM LOSSES SW =           0.0000

               TOTAL OUT =   191242144.0000                 TOTAL OUT =          31.4453

                IN - OUT =       -2128.0000                  IN - OUT =      -4.6921E-04

     PERCENT DISCREPANCY =          -0.00         PERCENT DISCREPANCY =          -0.00



1
  VOLUMETRIC BUDGET FOR ENTIRE MODEL AT END OF TIME STEP   10, STRESS PERIOD   8
  ------------------------------------------------------------------------------

     CUMULATIVE VOLUMES      L**3       RATES FOR THIS TIME STEP      L**3/T
     ------------------                 ------------------------

           IN:                                      IN:
           ---                                      ---
             STORAGE     =    97546648.0000               STORAGE     =          15.4149
       CONSTANT HEAD     =           0.0000         CONSTANT HEAD     =           0.0000
     HEAD DEP BOUNDS     =     4819908.0000       HEAD DEP BOUNDS     =           0.2880
      STREAM LEAKAGE     =   198482720.0000        STREAM LEAKAGE     =          11.9314
        UZF RECHARGE     =       73223.9531          UZF RECHARGE     =           0.0000
               GW ET     =           0.0000                 GW ET     =           0.0000
     SURFACE LEAKAGE     =           0.0000       SURFACE LEAKAGE     =           0.0000
           AG WELLS      =           0.0000             AG WELLS      =           0.0000

                TOTAL IN =   300922496.0000                  TOTAL IN =          27.6343

          OUT:                                     OUT:
          ----                                     ----
             STORAGE     =    38296984.0000               STORAGE     =           8.6612
       CONSTANT HEAD     =           0.0000         CONSTANT HEAD     =           0.0000
     HEAD DEP BOUNDS     =     4830685.5000       HEAD DEP BOUNDS     =           0.2876
      STREAM LEAKAGE     =   172653664.0000        STREAM LEAKAGE     =          10.7203
        UZF RECHARGE     =           0.0000          UZF RECHARGE     =           0.0000
               GW ET     =           0.0000                 GW ET     =           0.0000
     SURFACE LEAKAGE     =           0.0000       SURFACE LEAKAGE     =           0.0000
           AG WELLS      =    85144120.0000             AG WELLS      =           7.9653

               TOTAL OUT =   300925440.0000                 TOTAL OUT =          27.6343

                IN - OUT =       -2944.0000                  IN - OUT =       1.7166E-05

     PERCENT DISCREPANCY =          -0.00         PERCENT DISCREPANCY =           0.00






         TIME SUMMARY AT END OF TIME STEP   10 IN STRESS PERIOD    8
                    SECONDS     MINUTES      HOURS       DAYS        YEARS
                    -----------------------------------------------------------
   TIME STEP LENGTH  87667.      1461.1      24.352      1.0147     2.77799E-03
 STRESS PERIOD TIME 8.76667E+05  14611.      243.52      10.147     2.77799E-02
         TOTAL TIME 1.67431E+07 2.79052E+05  4650.9      193.79     0.53056    
1
 
 SOLVING FOR HEAD 
                                                   Max.-Head-Change                         Max.-Flux-Residual
  Residual-Control   Outer-Iter.   Inner-Iter.     Column Row Layer    Maximum-Head-Change  Column Row Layer    Maximum-Flux-Residual          L2-NORM 
          0                 1           2             5    8     1       0.6622798696E-01       5    8    1         0.3638402292E+01      0.8040095121E+01
          0                 2           2             5    6     1      -0.9551018068E-01       5    8    1        -0.5268104072E+01      0.1269135549E+02
          0                 3           2             4    7     1      -0.5507917201E+00       4    7    1        -0.2956324719E+02      0.7238944414E+02
          0                 4           2             4    7     1       0.3751043682E-01       4    7    1         0.2069643358E+01      0.5068415788E+01
          0                 5           2             4    7     1      -0.1492937494E-02       4    7    1        -0.8467044114E-01      0.2073845634E+00
          0                 6           1             4    7     1       0.1842222016E-04       4    7    1         0.1073847651E-02      0.2630705071E-02

    ------------------------------------------------
       NWT REQUIRED            6 OUTER ITERATIONS 
       AND A TOTAL OF         11 INNER ITERATIONS.
    ------------------------------------------------

 NO OUTPUT CONTROL FOR STRESS PERIOD    8   TIME STEP   11
 
 SOLVING FOR HEAD 
                                                   Max.-Head-Change                         Max.-Flux-Residual
  Residual-Control   Outer-Iter.   Inner-Iter.     Column Row Layer    Maximum-Head-Change  Column Row Layer    Maximum-Flux-Residual          L2-NORM 
          0                 1           2             5    8     1       0.8151383045E-01       5    8    1         0.4479697979E+01      0.9852037595E+01
          0                 2           2             5    8     1      -0.9543410021E-02       5    8    1        -0.5368611252E+00      0.1169762013E+01
          0                 3           2             4    7     1      -0.6528360513E-01       4    7    1        -0.3504408030E+01      0.8595023807E+01
          0                 4           2             4    7     1       0.6674760378E-01       4    7    1         0.3682740990E+01      0.9018919183E+01
          0                 5           2             4    7     1      -0.1710171859E-01       4    7    1        -0.9698701491E+00      0.2375685270E+01
          0                 6           2             4    7     1      -0.7579875624E-03       4    7    1        -0.4298525239E-01      0.1052838913E+00
          0                 7           1             4    7     1       0.9360625245E-05       5    8    1         0.5463376312E-03      0.1338826290E-02

    ------------------------------------------------
       NWT REQUIRED            7 OUTER ITERATIONS 
       AND A TOTAL OF         13 INNER ITERATIONS.
    ------------------------------------------------

 NO OUTPUT CONTROL FOR STRESS PERIOD    8   TIME STEP   12
 
 SOLVING FOR HEAD 
                                                   Max.-Head-Change                         Max.-Flux-Residual
  Residual-Control   Outer-Iter.   Inner-Iter.     Column Row Layer    Maximum-Head-Change  Column Row Layer    Maximum-Flux-Residual          L2-NORM 
          0                 1           2             5    8     1       0.7771435288E-01       5    8    1         0.4267126294E+01      0.9479462305E+01
          0                 2           2             5    8     1      -0.9649509053E-01       5    8    1        -0.5323917409E+01      0.1279572744E+02
          0                 3           2             4    7     1      -0.5690269508E+00       4    7    1        -0.3054174000E+02      0.7478263857E+02
          0                 4           2             4    7     1       0.3875224845E-01       4    7    1         0.2138141514E+01      0.5235971167E+01
          0                 5           2             4    7     1      -0.1542362614E-02       4    7    1        -0.8747277133E-01      0.2142405848E+00
          0                 6           1             4    7     1       0.1903210492E-04       4    7    1         0.1109388765E-02      0.2717677318E-02

    ------------------------------------------------
       NWT REQUIRED            6 OUTER ITERATIONS 
       AND A TOTAL OF         11 INNER ITERATIONS.
    ------------------------------------------------

 NO OUTPUT CONTROL FOR STRESS PERIOD    8   TIME STEP   13
 
 SOLVING FOR HEAD 
                                                   Max.-Head-Change                         Max.-Flux-Residual
  Residual-Control   Outer-Iter.   Inner-Iter.     Column Row Layer    Maximum-Head-Change  Column Row Layer    Maximum-Flux-Residual          L2-NORM 
          0                 1           2             5    8     1       0.9295362188E-01       5    8    1         0.5105578385E+01      0.1129184319E+02
          0                 2           2             5    8     1      -0.1065822062E-01       5    8    1        -0.5995602505E+00      0.1313537499E+01
          0                 3           2             4    7     1      -0.6427324016E-01       4    7    1        -0.3450189119E+01      0.8458261597E+01
          0                 4           2             4    7     1       0.6544901342E-01       4    7    1         0.3611059067E+01      0.8843072373E+01
          0                 5           2             4    7     1      -0.1590712228E-01       4    7    1        -0.9021134618E+00      0.2209763849E+01
          0                 6           2             4    7     1      -0.1228280097E-03       4    7    1        -0.6964731337E-02      0.1707421563E-01
          0                 7           1             4    7     1       0.1516841926E-05       5    8    1         0.8867183237E-04      0.2179955880E-03

    ------------------------------------------------
       NWT REQUIRED            7 OUTER ITERATIONS 
       AND A TOTAL OF         13 INNER ITERATIONS.
    ------------------------------------------------

 NO OUTPUT CONTROL FOR STRESS PERIOD    8   TIME STEP   14
 
 SOLVING FOR HEAD 
                                                   Max.-Head-Change                         Max.-Flux-Residual
  Residual-Control   Outer-Iter.   Inner-Iter.     Column Row Layer    Maximum-Head-Change  Column Row Layer    Maximum-Flux-Residual          L2-NORM 
          0                 1           2             5    8     1       0.8854299370E-01       5    8    1         0.4859025184E+01      0.1085653327E+02
          0                 2           2             5    8     1      -0.9745751295E-01       5    8    1        -0.5378085596E+01      0.1290184439E+02
          0                 3           2             4    7     1      -0.5763351646E+00       4    7    1        -0.3093370517E+02      0.7573963187E+02
          0                 4           2             4    7     1       0.3924993292E-01       4    7    1         0.2165580573E+01      0.5302973906E+01
          0                 5           2             4    7     1      -0.1562170872E-02       4    7    1        -0.8859533803E-01      0.2169822717E+00
          0                 6           1             4    7     1       0.1927653039E-04       4    7    1         0.1123626026E-02      0.2752459000E-02

    ------------------------------------------------
       NWT REQUIRED            6 OUTER ITERATIONS 
       AND A TOTAL OF         11 INNER ITERATIONS.
    ------------------------------------------------

 OUTPUT CONTROL FOR STRESS PERIOD    8   TIME STEP   15
    PRINT BUDGET
    SAVE BUDGET
 UBDSV1 SAVING "         STORAGE" ON UNIT 102 AT TIME STEP 15, STRESS PERIOD 8
 UBDSV2 SAVING "   CONSTANT HEAD" ON UNIT 102 AT TIME STEP 15, STRESS PERIOD 8
 UBDSV1 SAVING "FLOW RIGHT FACE " ON UNIT 102 AT TIME STEP 15, STRESS PERIOD 8
 UBDSV1 SAVING "FLOW FRONT FACE " ON UNIT 102 AT TIME STEP 15, STRESS PERIOD 8

  HEAD DEP BOUNDS   PERIOD    8   STEP    15
 BOUNDARY      1   LAYER   1   ROW    13   COL     1   RATE   -0.287354    
 BOUNDARY      2   LAYER   1   ROW    14   COL     9   RATE    0.287959    



 STREAM LISTING     PERIOD      8   STEP       15

 LAYER ROW COL. STREAM  RCH.  FLOW INTO     FLOW TO   FLOW OUT OF   OVRLND.     DIRECT     STREAM       STREAM     STREAM     STREAM   STREAMBED  STREAMBED
                SEG.NO.  NO.  STRM. RCH.    AQUIFER    STRM. RCH.    RUNOFF     PRECIP       ET          HEAD       DEPTH      WIDTH   CONDCTNC.   GRADIENT

   1    1    1     1     1    2.8125E+01  2.5915E-01   2.7866E+01  0.000E+00  0.000E+00  0.000E+00  1.09427E+03  1.223E+00  1.364E+01  6.137E-02  1.408E+00
   1    2    2     1     2    2.7866E+01  4.0087E-01   2.7465E+01  0.000E+00  0.000E+00  0.000E+00  1.08928E+03  1.218E+00  1.358E+01  9.503E-02  1.406E+00
   1    3    3     1     3    2.7465E+01  3.4142E-01   2.7123E+01  0.000E+00  0.000E+00  0.000E+00  1.08363E+03  1.213E+00  1.351E+01  8.103E-02  1.404E+00
   1    3    4     1     4    2.7123E+01  3.1403E-01   2.6809E+01  0.000E+00  0.000E+00  0.000E+00  1.07862E+03  1.209E+00  1.344E+01  7.461E-02  1.403E+00
   1    4    5     2     1    2.4809E+01  3.2739E-01   2.4482E+01  0.000E+00  0.000E+00  0.000E+00  1.07313E+03  1.197E+00  1.200E+01  7.800E-02  1.399E+00
   1    5    6     2     2    2.4482E+01  2.5133E-01   2.4231E+01  0.000E+00  0.000E+00  0.000E+00  1.06770E+03  1.189E+00  1.200E+01  6.000E-02  1.396E+00
   1    6    6     2     3    2.4231E+01  2.5089E-01   2.3980E+01  0.000E+00  0.000E+00  0.000E+00  1.06297E+03  1.181E+00  1.200E+01  6.000E-02  1.394E+00
   1    7    6     2     4    2.3980E+01  2.5044E-01   2.3729E+01  0.000E+00  0.000E+00  0.000E+00  1.05825E+03  1.174E+00  1.200E+01  6.000E-02  1.391E+00
   1    8    6     2     5    2.3729E+01  2.5000E-01   2.3479E+01  0.000E+00  0.000E+00  0.000E+00  1.05353E+03  1.167E+00  1.200E+01  6.000E-02  1.389E+00
   1    3    5     3     1    2.0000E+00  2.8252E-01   1.7175E+00  0.000E+00  0.000E+00  0.000E+00  1.07555E+03  1.909E+00  9.636E+00  7.227E-02  1.955E+00
   1    3    6     3     2    1.7175E+00  2.4905E-01   1.4684E+00  0.000E+00  0.000E+00  0.000E+00  1.07264E+03  1.727E+00  8.909E+00  6.682E-02  1.864E+00
   1    3    7     3     3    1.4684E+00  1.9718E-01   1.2712E+00  0.000E+00  0.000E+00  0.000E+00  1.06987E+03  1.555E+00  8.218E+00  5.547E-02  1.777E+00
   1    4    8     3     4    1.2712E+00  2.2567E-01   1.0456E+00  0.000E+00  0.000E+00  0.000E+00  1.06682E+03  1.364E+00  7.455E+00  6.709E-02  1.682E+00
   1    5    8     3     5    1.0456E+00  1.5790E-01   8.8768E-01  0.000E+00  0.000E+00  0.000E+00  1.06362E+03  1.164E+00  6.655E+00  4.991E-02  1.582E+00
   1    6    8     3     6    8.8768E-01  5.5980E-02   8.3170E-01  0.000E+00  0.000E+00  0.000E+00  1.06158E+03  1.036E+00  6.145E+00  1.844E-02  1.518E+00
   1    5   10     4     1    1.0000E+01  9.0919E-02   9.9091E+00  0.000E+00  0.000E+00  0.000E+00  1.07836E+03  6.368E-01  1.000E+01  2.500E-02  1.212E+00
   1    5    9     4     2    9.9091E+00  1.8158E-01   9.7275E+00  0.000E+00  0.000E+00  0.000E+00  1.07154E+03  6.315E-01  1.000E+01  5.000E-02  1.211E+00
   1    6    8     4     3    9.7275E+00  1.2689E-01   9.6006E+00  0.000E+00  0.000E+00  0.000E+00  1.06381E+03  6.256E-01  1.000E+01  3.500E-02  1.209E+00
   1    6    8     5     1    1.0432E+01  2.2686E-01   1.0205E+01  0.000E+00  0.000E+00  0.000E+00  1.05868E+03  6.790E-01  1.542E+01  6.166E-02  1.226E+00
   1    7    7     5     2    1.0205E+01  2.7894E-01   9.9265E+00  0.000E+00  0.000E+00  0.000E+00  1.05417E+03  6.732E-01  1.519E+01  7.594E-02  1.224E+00
   1    8    7     5     3    9.9265E+00  1.9221E-01   9.7343E+00  0.000E+00  0.000E+00  0.000E+00  1.04992E+03  6.676E-01  1.497E+01  5.241E-02  1.223E+00
   1    8    6     5     4    9.7343E+00  1.3577E-01   9.5985E+00  0.000E+00  0.000E+00  0.000E+00  1.04691E+03  6.637E-01  1.482E+01  3.706E-02  1.221E+00
   1    9    6     6     1    9.5985E+00  2.2097E-01   9.3776E+00  0.000E+00  0.000E+00  0.000E+00  1.04341E+03  6.828E-01  1.200E+01  6.000E-02  1.228E+00
   1   10    7     6     2    9.3776E+00  2.2039E-01   9.1572E+00  0.000E+00  0.000E+00  0.000E+00  1.03885E+03  6.732E-01  1.200E+01  6.000E-02  1.224E+00
   1   11    7     6     3    9.1572E+00  2.1981E-01   8.9374E+00  0.000E+00  0.000E+00  0.000E+00  1.03430E+03  6.636E-01  1.200E+01  6.000E-02  1.221E+00
   1   12    7     6     4    8.9374E+00  2.1923E-01   8.7181E+00  0.000E+00  0.000E+00  0.000E+00  1.02974E+03  6.539E-01  1.200E+01  6.000E-02  1.218E+00
   1   13    7     6     5    8.7181E+00 -6.8362E-02   8.7865E+00  0.000E+00  0.000E+00  0.000E+00  1.02656E+03  6.505E-01  1.200E+01  2.400E-01 -9.495E-02
   1   14    9     7     1    1.5000E+02  1.3681E+00   1.4863E+02  0.000E+00  0.000E+00  0.000E+00  1.03987E+03  2.288E+00  5.529E+01  5.593E-01  8.154E-01
   1   13    8     7     2    1.4863E+02  1.9156E+00   1.4672E+02  0.000E+00  0.000E+00  0.000E+00  1.03478E+03  2.279E+00  5.526E+01  6.148E-01  1.039E+00
   1   13    7     7     3    1.4672E+02  1.5884E+00   1.4513E+02  0.000E+00  0.000E+00  0.000E+00  1.02969E+03  2.270E+00  5.521E+01  5.584E-01  9.482E-01
   1   13    6     8     1    1.5391E+02  9.3752E-01   1.5298E+02  0.000E+00  0.000E+00  0.000E+00  1.02472E+03  2.841E+00  4.119E+01  4.198E-01  7.445E-01
   1   13    5     8     2    1.5298E+02  1.9920E-01   1.5278E+02  0.000E+00  0.000E+00  0.000E+00  1.01846E+03  2.837E+00  4.114E+01  4.192E-01  1.584E-01
   1   13    4     8     3    1.5278E+02 -2.3543E+00   1.5513E+02  0.000E+00  0.000E+00  0.000E+00  1.01222E+03  2.844E+00  4.124E+01  4.203E+00 -1.867E-01
   1   13    3     8     4    1.5513E+02 -3.6133E+00   1.5875E+02  0.000E+00  0.000E+00  0.000E+00  1.00599E+03  2.865E+00  4.154E+01  4.233E+00 -2.845E-01
   1   13    2     8     5    1.5875E+02 -2.6030E+00   1.6135E+02  0.000E+00  0.000E+00  0.000E+00  9.99761E+02  2.886E+00  4.185E+01  4.265E+00 -2.035E-01
   1   13    1     8     6    1.6135E+02 -2.0200E+00   1.6337E+02  0.000E+00  0.000E+00  0.000E+00  9.94777E+02  2.902E+00  4.207E+01  2.573E+00 -2.617E-01
   1    8    6     9     1    2.3479E+01  0.0000E+00   2.3479E+01  0.000E+00  0.000E+00  0.000E+00  1.08253E+03  3.782E+00  4.000E+00  0.000E+00  2.261E+00
   1    8    5     9     2    2.3479E+01  0.0000E+00   2.3479E+01  0.000E+00  0.000E+00  0.000E+00  1.08203E+03  3.782E+00  4.000E+00  0.000E+00  2.261E+00



 UBDSV3 SAVING "           GW ET" ON UNIT  61 AT TIME STEP 15, STRESS PERIOD 8
 UBDSV3 SAVING "    UZF RECHARGE" ON UNIT  61 AT TIME STEP 15, STRESS PERIOD 8
 UBDSV3 SAVING " SURFACE LEAKAGE" ON UNIT  61 AT TIME STEP 15, STRESS PERIOD 8
 UBDSV3 SAVING "       HORT+DUNN" ON UNIT  61 AT TIME STEP 15, STRESS PERIOD 8
 UBDSV3 SAVING "  STORAGE CHANGE" ON UNIT  61 AT TIME STEP 15, STRESS PERIOD 8


UNSATURATED ZONE PACKAGE VOLUMETRIC BUDGET FOR  TIME STEP    15 STRESS PERIOD    8
  ------------------------------------------------------------------------------



     CUMULATIVE VOLUMES      L**3       RATES FOR THIS TIME STEP      L**3/T
     ------------------                 ------------------------

           IN:                                      IN:
           ---                                      ---
        INFILTRATION =   273286125.8834          INFILTRATION =         241.4062

          OUT:                                     OUT:
          ----                                     ----
              UZF ET =   181803034.8218                UZF ET =          60.8175
        UZF RECHARGE =       73224.0000          UZF RECHARGE =       0.0000E+00

            IN - OUT =    91409867.0616              IN - OUT =         180.5887

          STORAGE:                                 STORAGE:
          --------                                 --------
      STORAGE CHANGE =    91410082.0188        STORAGE CHANGE =         180.5887

 PERCENT DISCREPANCY IS DIFFERENCE BETWEEN IN-OUT MINUS CHANGE IN STORAGE
 DIVIDED BY THE AVERAGE OF IN AND OUT TIMES 100

 PERCENT DISCREPANCY =          -0.00     PERCENT DISCREPANCY =           0.00






 

            AG WELLS      PERIOD    8   STEP  15
 AG WELL      1   LAYER   1   ROW     6   COL     4   RATE    -36.1798    
 AG WELL      2   LAYER   1   ROW     6   COL     5   RATE    -36.1798    
 AG WELL      3   LAYER   1   ROW     7   COL     4   RATE    -36.1798    
 AG WELL      4   LAYER   1   ROW     7   COL     5   RATE    -36.1798    
 AG WELL      5   LAYER   1   ROW     8   COL     4   RATE    -36.1798    
 AG WELL      6   LAYER   1   ROW     8   COL     5   RATE    -36.1798    
 
 

   DIVERSION SEGMENTS     PERIOD    8   STEP  15
 SEGMENT      9   RATE     23.4793    
 
 

        SW IRRIGATION     PERIOD    8   STEP  15
 SEGMENT      9   ROW     6   COL     4   RATE     3.91329    
 SEGMENT      9   ROW     6   COL     5   RATE     3.91329    
 SEGMENT      9   ROW     7   COL     4   RATE     3.91329    
 SEGMENT      9   ROW     7   COL     5   RATE     3.91329    
 SEGMENT      9   ROW     8   COL     4   RATE     3.91329    
 SEGMENT      9   ROW     8   COL     5   RATE     3.91329    
 
 

        GW IRRIGATION     PERIOD    8   STEP  15
 AG WELL      1   ROW     6   COL     4   RATE     36.1798    
 AG WELL      2   ROW     6   COL     5   RATE     36.1798    
 AG WELL      3   ROW     7   COL     4   RATE     36.1798    
 AG WELL      4   ROW     7   COL     5   RATE     36.1798    
 AG WELL      5   ROW     8   COL     4   RATE     36.1798    
 AG WELL      6   ROW     8   COL     5   RATE     36.1798    
 
1
  VOLUMETRIC BUDGET FOR AGRICULTURAL FIELDS AT  END OF TIME STEP   15, STRESS PERIOD   8
  ------------------------------------------------------------------------------

     CUMULATIVE VOLUMES      L**3       RATES FOR THIS TIME STEP      L**3/T
     ------------------                 ------------------------

           IN:                                      IN:
           ---                                      ---
               AG WELLS  =   142370176.0000                 AG WELLS  =         217.0789
      DIVERSION SEGMENTS =   116387680.0000        DIVERSION SEGMENTS =          23.4793
       IRRIGATION PONDS  =           0.0000         IRRIGATION PONDS  =           0.0000
           GW IRRIGATION =           0.0000             GW IRRIGATION =           0.0000
           SW IRRIGATION =           0.0000             SW IRRIGATION =           0.0000
        SYSTEM LOSSES GW =           0.0000          SYSTEM LOSSES GW =           0.0000
        SYSTEM LOSSES SW =           0.0000          SYSTEM LOSSES SW =           0.0000

                TOTAL IN =   258757856.0000                  TOTAL IN =         240.5582

          OUT:                                     OUT:
          ----                                     ----
               AG WELLS  =           0.0000                 AG WELLS  =           0.0000
      DIVERSION SEGMENTS =           0.0000        DIVERSION SEGMENTS =           0.0000
       IRRIGATION PONDS  =           0.0000         IRRIGATION PONDS  =           0.0000
           GW IRRIGATION =   142370176.0000             GW IRRIGATION =         217.0789
           SW IRRIGATION =   116390000.0000             SW IRRIGATION =          23.4797
        SYSTEM LOSSES GW =           0.0000          SYSTEM LOSSES GW =           0.0000
        SYSTEM LOSSES SW =           0.0000          SYSTEM LOSSES SW =           0.0000

               TOTAL OUT =   258760176.0000                 TOTAL OUT =         240.5587

                IN - OUT =       -2320.0000                  IN - OUT =      -4.7302E-04

     PERCENT DISCREPANCY =          -0.00         PERCENT DISCREPANCY =          -0.00



1
  VOLUMETRIC BUDGET FOR ENTIRE MODEL AT END OF TIME STEP   15, STRESS PERIOD   8
  ------------------------------------------------------------------------------

     CUMULATIVE VOLUMES      L**3       RATES FOR THIS TIME STEP      L**3/T
     ------------------                 ------------------------

           IN:                                      IN:
           ---                                      ---
             STORAGE     =   157029856.0000               STORAGE     =         216.6891
       CONSTANT HEAD     =           0.0000         CONSTANT HEAD     =           0.0000
     HEAD DEP BOUNDS     =     4946130.5000       HEAD DEP BOUNDS     =           0.2880
      STREAM LEAKAGE     =   203713920.0000        STREAM LEAKAGE     =          11.9362
        UZF RECHARGE     =       73223.9531          UZF RECHARGE     =           0.0000
               GW ET     =           0.0000                 GW ET     =           0.0000
     SURFACE LEAKAGE     =           0.0000       SURFACE LEAKAGE     =           0.0000
           AG WELLS      =           0.0000             AG WELLS      =           0.0000

                TOTAL IN =   365763136.0000                  TOTAL IN =         228.9133

          OUT:                                     OUT:
          ----                                     ----
             STORAGE     =    41103300.0000               STORAGE     =           0.8878
       CONSTANT HEAD     =           0.0000         CONSTANT HEAD     =           0.0000
     HEAD DEP BOUNDS     =     4956676.0000       HEAD DEP BOUNDS     =           0.2874
      STREAM LEAKAGE     =   177335920.0000        STREAM LEAKAGE     =          10.6591
        UZF RECHARGE     =           0.0000          UZF RECHARGE     =           0.0000
               GW ET     =           0.0000                 GW ET     =           0.0000
     SURFACE LEAKAGE     =           0.0000       SURFACE LEAKAGE     =           0.0000
           AG WELLS      =   142370176.0000             AG WELLS      =         217.0789

               TOTAL OUT =   365766080.0000                 TOTAL OUT =         228.9131

                IN - OUT =       -2944.0000                  IN - OUT =       1.0681E-04

     PERCENT DISCREPANCY =          -0.00         PERCENT DISCREPANCY =           0.00






         TIME SUMMARY AT END OF TIME STEP   15 IN STRESS PERIOD    8
                    SECONDS     MINUTES      HOURS       DAYS        YEARS
                    -----------------------------------------------------------
   TIME STEP LENGTH  87667.      1461.1      24.352      1.0147     2.77799E-03
 STRESS PERIOD TIME 1.31500E+06  21917.      365.28      15.220     4.16698E-02
         TOTAL TIME 1.71814E+07 2.86357E+05  4772.6      198.86     0.54445    
1
 
 SOLVING FOR HEAD 
                                                   Max.-Head-Change                         Max.-Flux-Residual
  Residual-Control   Outer-Iter.   Inner-Iter.     Column Row Layer    Maximum-Head-Change  Column Row Layer    Maximum-Flux-Residual          L2-NORM 
          0                 1           2             5    8     1       0.1034667537E+00       5    8    1         0.5679844824E+01      0.1263612322E+02
          0                 2           2             5    8     1      -0.1180503575E-01       5    8    1        -0.6638236819E+00      0.1462164054E+01
          0                 3           2             4    7     1      -0.6359044890E-01       4    7    1        -0.3413542175E+01      0.8365480914E+01
          0                 4           2             4    7     1       0.6511227781E-01       4    7    1         0.3592443831E+01      0.8797264594E+01
          0                 5           2             4    7     1      -0.9542209911E-03       4    7    1        -0.5411968770E-01      0.1340730516E+00
          0                 6           2             4    7     1      -0.2021546097E-03       5    6    1        -0.1146450011E-01      0.2891857583E-01
          0                 7           2             4    7     1      -0.9680151843E-02       4    7    1        -0.5489537681E+00      0.1344656429E+01
          0                 8           2             4    7     1      -0.1619063842E-02       4    7    1        -0.9181435004E-01      0.2248907701E+00
          0                 9           2             4    7     1      -0.1720848836E-01       4    7    1        -0.9758602966E+00      0.2390358280E+01
          0                10           2             4    7     1       0.2130135770E-03       5    8    1         0.1242788663E-01      0.3044639959E-01
          0                11           1             4    7     1       0.3122630839E-05       5    8    1         0.1821823294E-03      0.4463184841E-03

    ------------------------------------------------
       NWT REQUIRED           11 OUTER ITERATIONS 
       AND A TOTAL OF         21 INNER ITERATIONS.
    ------------------------------------------------

 NO OUTPUT CONTROL FOR STRESS PERIOD    8   TIME STEP   16
 
 SOLVING FOR HEAD 
                                                   Max.-Head-Change                         Max.-Flux-Residual
  Residual-Control   Outer-Iter.   Inner-Iter.     Column Row Layer    Maximum-Head-Change  Column Row Layer    Maximum-Flux-Residual          L2-NORM 
          0                 1           2             5    8     1       0.9896386866E-01       5    8    1         0.5428009127E+01      0.1219670751E+02
          0                 2           2             5    8     1      -0.9904732052E-01       5    8    1        -0.5466691927E+01      0.1309594077E+02
          0                 3           2             4    7     1      -0.4716880074E+00       4    7    1        -0.2531679529E+02      0.6197831887E+02
          0                 4           2             4    7     1       0.3212348802E-01       4    7    1         0.1772376200E+01      0.4339506168E+01
          0                 5           2             4    7     1      -0.1278532769E-02       4    7    1        -0.7250902483E-01      0.1775600537E+00
          0                 6           1             4    7     1       0.1577655802E-04       4    7    1         0.9196089031E-03      0.2252384076E-02

    ------------------------------------------------
       NWT REQUIRED            6 OUTER ITERATIONS 
       AND A TOTAL OF         11 INNER ITERATIONS.
    ------------------------------------------------

 NO OUTPUT CONTROL FOR STRESS PERIOD    8   TIME STEP   17
 
 SOLVING FOR HEAD 
                                                   Max.-Head-Change                         Max.-Flux-Residual
  Residual-Control   Outer-Iter.   Inner-Iter.     Column Row Layer    Maximum-Head-Change  Column Row Layer    Maximum-Flux-Residual          L2-NORM 
          0                 1           2             5    8     1       0.1103778235E+00       5    8    1         0.6054948928E+01      0.1357522225E+02
          0                 2           2             5    8     1      -0.1245882598E-01       5    8    1        -0.7003165203E+00      0.1554705881E+01
          0                 3           2             4    7     1      -0.6943282188E-01       4    7    1        -0.3727087403E+01      0.9135344309E+01
          0                 4           2             4    7     1       0.7072301388E-01       4    7    1         0.3901961236E+01      0.9555559296E+01
          0                 5           2             4    7     1      -0.1991982700E-01       4    7    1        -0.1129653837E+01      0.2767033808E+01
          0                 6           2             4    7     1      -0.1627687629E-01       4    7    1        -0.9230467387E+00      0.2260978994E+01
          0                 7           2             4    7     1       0.2010067134E-03       5    8    1         0.1172781362E-01      0.2873169523E-01
          0                 8           1             4    7     1       0.2952468127E-05       5    8    1         0.1722611300E-03      0.4220184856E-03

    ------------------------------------------------
       NWT REQUIRED            8 OUTER ITERATIONS 
       AND A TOTAL OF         15 INNER ITERATIONS.
    ------------------------------------------------

 NO OUTPUT CONTROL FOR STRESS PERIOD    8   TIME STEP   18
 
 SOLVING FOR HEAD 
                                                   Max.-Head-Change                         Max.-Flux-Residual
  Residual-Control   Outer-Iter.   Inner-Iter.     Column Row Layer    Maximum-Head-Change  Column Row Layer    Maximum-Flux-Residual          L2-NORM 
          0                 1           2             5    8     1       0.1057962428E+00       5    8    1         0.5798761061E+01      0.1312971494E+02
          0                 2           2             5    8     1      -0.9917379625E-01       5    8    1        -0.5474119627E+01      0.1310955375E+02
          0                 3           2             4    7     1      -0.4796593937E+00       4    7    1        -0.2574436685E+02      0.6302459725E+02
          0                 4           2             4    7     1       0.3266634376E-01       4    7    1         0.1802308372E+01      0.4412760647E+01
          0                 5           2             4    7     1      -0.1300138836E-02       4    7    1        -0.7373358164E-01      0.1805574810E+00
          0                 6           1             4    7     1       0.1604316744E-04       4    7    1         0.9351396184E-03      0.2290409431E-02

    ------------------------------------------------
       NWT REQUIRED            6 OUTER ITERATIONS 
       AND A TOTAL OF         11 INNER ITERATIONS.
    ------------------------------------------------

 NO OUTPUT CONTROL FOR STRESS PERIOD    8   TIME STEP   19
 
 SOLVING FOR HEAD 
                                                   Max.-Head-Change                         Max.-Flux-Residual
  Residual-Control   Outer-Iter.   Inner-Iter.     Column Row Layer    Maximum-Head-Change  Column Row Layer    Maximum-Flux-Residual          L2-NORM 
          0                 1           2             5    8     1       0.1171400360E+00       5    8    1         0.6421816200E+01      0.1449782458E+02
          0                 2           2             5    8     1      -0.1286719521E-01       5    8    1        -0.7232691102E+00      0.1618992177E+01
          0                 3           2             4    7     1      -0.6948150981E-01       4    7    1        -0.3729670212E+01      0.9141065255E+01
          0                 4           2             4    7     1       0.7119576028E-01       4    7    1         0.3928001343E+01      0.9619274019E+01
          0                 5           2             4    7     1      -0.1753575520E-01       4    7    1        -0.9944429479E+00      0.2435834882E+01
          0                 6           2             4    7     1      -0.1504145087E-02       4    7    1        -0.8529687347E-01      0.2089235608E+00
          0                 7           2             4    7     1      -0.1734810815E-02       4    7    1        -0.9837750059E-01      0.2409731868E+00
          0                 8           2             4    7     1      -0.2642868575E-03       4    7    1        -0.1498692018E-01      0.3670895373E-01
          0                 9           1             4    7     1       0.3268904330E-05       5    8    1         0.1907344219E-03      0.4673069558E-03

    ------------------------------------------------
       NWT REQUIRED            9 OUTER ITERATIONS 
       AND A TOTAL OF         17 INNER ITERATIONS.
    ------------------------------------------------

 NO OUTPUT CONTROL FOR STRESS PERIOD    8   TIME STEP   20
 
 SOLVING FOR HEAD 
                                                   Max.-Head-Change                         Max.-Flux-Residual
  Residual-Control   Outer-Iter.   Inner-Iter.     Column Row Layer    Maximum-Head-Change  Column Row Layer    Maximum-Flux-Residual          L2-NORM 
          0                 1           2             5    8     1       0.1117941500E+00       5    8    1         0.6123442359E+01      0.1396810889E+02
          0                 2           2             5    8     1      -0.9992447003E-01       5    8    1        -0.5515780661E+01      0.1321066180E+02
          0                 3           2             4    7     1      -0.5691817731E+00       4    7    1        -0.3054880931E+02      0.7479241230E+02
          0                 4           2             4    7     1       0.3876285715E-01       4    7    1         0.2138640827E+01      0.5236667980E+01
          0                 5           2             4    7     1      -0.1542784866E-02       4    7    1        -0.8749323431E-01      0.2142694385E+00
          0                 6           1             4    7     1       0.1903731556E-04       4    7    1         0.1109648727E-02      0.2718047527E-02

    ------------------------------------------------
       NWT REQUIRED            6 OUTER ITERATIONS 
       AND A TOTAL OF         11 INNER ITERATIONS.
    ------------------------------------------------

 NO OUTPUT CONTROL FOR STRESS PERIOD    8   TIME STEP   21
 
 SOLVING FOR HEAD 
                                                   Max.-Head-Change                         Max.-Flux-Residual
  Residual-Control   Outer-Iter.   Inner-Iter.     Column Row Layer    Maximum-Head-Change  Column Row Layer    Maximum-Flux-Residual          L2-NORM 
          0                 1           2             5    8     1       0.1255024851E+00       5    8    1         0.6877005890E+01      0.1560284003E+02
          0                 2           2             5    8     1      -0.1383101536E-01       5    8    1        -0.7770678992E+00      0.1747111446E+01
          0                 3           2             4    7     1      -0.6408829435E-01       4    7    1        -0.3440190343E+01      0.8427483325E+01
          0                 4           2             4    7     1       0.6542329383E-01       4    7    1         0.3609486531E+01      0.8838754236E+01
          0                 5           2             4    7     1      -0.1579858634E-01       4    7    1        -0.8959189066E+00      0.2194576560E+01
          0                 6           1             4    7     1      -0.9462671043E-04       4    7    1        -0.5365186792E-02      0.1316378297E-01

    ------------------------------------------------
       NWT REQUIRED            6 OUTER ITERATIONS 
       AND A TOTAL OF         11 INNER ITERATIONS.
    ------------------------------------------------

 NO OUTPUT CONTROL FOR STRESS PERIOD    8   TIME STEP   22
 
 SOLVING FOR HEAD 
                                                   Max.-Head-Change                         Max.-Flux-Residual
  Residual-Control   Outer-Iter.   Inner-Iter.     Column Row Layer    Maximum-Head-Change  Column Row Layer    Maximum-Flux-Residual          L2-NORM 
          0                 1           2             5    8     1       0.1196424154E+00       5    8    1         0.6550165970E+01      0.1501898872E+02
          0                 2           2             5    8     1      -0.1003811071E+00       5    8    1        -0.5541541375E+01      0.1326491644E+02
          0                 3           2             4    7     1      -0.5738704689E+00       4    7    1        -0.3080010671E+02      0.7540661660E+02
          0                 4           2             4    7     1       0.3908208519E-01       4    7    1         0.2156228843E+01      0.5279661364E+01
          0                 5           2             4    7     1      -0.1555490408E-02       4    7    1        -0.8821278402E-01      0.2160286823E+00
          0                 6           1             4    7     1       0.1919409600E-04       4    7    1         0.1118774612E-02      0.2740364940E-02

    ------------------------------------------------
       NWT REQUIRED            6 OUTER ITERATIONS 
       AND A TOTAL OF         11 INNER ITERATIONS.
    ------------------------------------------------

 NO OUTPUT CONTROL FOR STRESS PERIOD    8   TIME STEP   23
 
 SOLVING FOR HEAD 
                                                   Max.-Head-Change                         Max.-Flux-Residual
  Residual-Control   Outer-Iter.   Inner-Iter.     Column Row Layer    Maximum-Head-Change  Column Row Layer    Maximum-Flux-Residual          L2-NORM 
          0                 1           2             5    8     1       0.1331357308E+00       5    8    1         0.7291792029E+01      0.1662765602E+02
          0                 2           2             5    8     1      -0.1464811195E-01       5    8    1        -0.8226528990E+00      0.1858674633E+01
          0                 3           2             4    7     1      -0.6366016061E-01       4    7    1        -0.3417184306E+01      0.8369862999E+01
          0                 4           2             4    7     1       0.6522014162E-01       4    7    1         0.3598236712E+01      0.8811108342E+01
          0                 5           2             4    7     1      -0.9568816755E-03       4    7    1        -0.5426835256E-01      0.1345499260E+00
          0                 6           1             4    7     1       0.4297286941E-04       4    7    1         0.2504686776E-02      0.7049797396E-02

    ------------------------------------------------
       NWT REQUIRED            6 OUTER ITERATIONS 
       AND A TOTAL OF         11 INNER ITERATIONS.
    ------------------------------------------------

 NO OUTPUT CONTROL FOR STRESS PERIOD    8   TIME STEP   24
 
 SOLVING FOR HEAD 
                                                   Max.-Head-Change                         Max.-Flux-Residual
  Residual-Control   Outer-Iter.   Inner-Iter.     Column Row Layer    Maximum-Head-Change  Column Row Layer    Maximum-Flux-Residual          L2-NORM 
          0                 1           2             5    8     1       0.1264798422E+00       5    8    1         0.6920981861E+01      0.1595623647E+02
          0                 2           2             5    8     1      -0.1227516955E+00       5    8    1        -0.6773789086E+01      0.1626574088E+02
          0                 3           2             4    7     1      -0.2331958957E+00       4    7    1        -0.1251597466E+02      0.3061911299E+02
          0                 4           2             4    7     1       0.1588173021E-01       4    7    1         0.8762399136E+00      0.2143890810E+01
          0                 5           2             4    7     1      -0.6321002446E-03       4    7    1        -0.3584749624E-01      0.8772235111E-01
          0                 6           1             4    7     1       0.7799854014E-05       4    7    1         0.4546432958E-03      0.1112791710E-02

    ------------------------------------------------
       NWT REQUIRED            6 OUTER ITERATIONS 
       AND A TOTAL OF         11 INNER ITERATIONS.
    ------------------------------------------------

 NO OUTPUT CONTROL FOR STRESS PERIOD    8   TIME STEP   25
 
 SOLVING FOR HEAD 
                                                   Max.-Head-Change                         Max.-Flux-Residual
  Residual-Control   Outer-Iter.   Inner-Iter.     Column Row Layer    Maximum-Head-Change  Column Row Layer    Maximum-Flux-Residual          L2-NORM 
          0                 1           2             5    8     1       0.1305077162E+00       5    8    1         0.7140233018E+01      0.1648795347E+02
          0                 2           2             5    8     1      -0.2830914108E-01       5    8    1        -0.1573795358E+01      0.3601390254E+01
          0                 3           2             4    7     1      -0.5534058260E-01       4    7    1        -0.2970598346E+01      0.7271722540E+01
          0                 4           2             4    7     1       0.5638287963E-01       4    7    1         0.3110652354E+01      0.7617215623E+01
          0                 5           2             4    7     1      -0.3895702680E-02       4    7    1        -0.2209195536E+00      0.5411083141E+00
          0                 6           2             4    7     1      -0.1680067584E-02       4    7    1        -0.9527082467E-01      0.2333638327E+00
          0                 7           2             4    7     1      -0.1667754697E-01       4    7    1        -0.9457185785E+00      0.2316526463E+01
          0                 8           2             4    7     1       0.2061169039E-03       5    8    1         0.1202511480E-01      0.2945966740E-01
          0                 9           1             4    7     1       0.3025529129E-05       5    8    1         0.1765113225E-03      0.4324340964E-03

    ------------------------------------------------
       NWT REQUIRED            9 OUTER ITERATIONS 
       AND A TOTAL OF         17 INNER ITERATIONS.
    ------------------------------------------------

 NO OUTPUT CONTROL FOR STRESS PERIOD    8   TIME STEP   26
 
 SOLVING FOR HEAD 
                                                   Max.-Head-Change                         Max.-Flux-Residual
  Residual-Control   Outer-Iter.   Inner-Iter.     Column Row Layer    Maximum-Head-Change  Column Row Layer    Maximum-Flux-Residual          L2-NORM 
          0                 1           2             5    8     1       0.1252308139E+00       5    8    1         0.6845946838E+01      0.1596795572E+02
          0                 2           2             5    6     1      -0.1022743300E+00       5    8    1        -0.5645359532E+01      0.1354627831E+02
          0                 3           2             4    7     1      -0.5191433992E+00       4    7    1        -0.2786228122E+02      0.6821235585E+02
          0                 4           2             4    7     1       0.3535525159E-01       4    7    1         0.1950574101E+01      0.4775979598E+01
          0                 5           2             4    7     1      -0.1407159433E-02       4    7    1        -0.7979927912E-01      0.1954194981E+00
          0                 6           1             4    7     1       0.1736375551E-04       4    7    1         0.1012069097E-02      0.2478937100E-02

    ------------------------------------------------
       NWT REQUIRED            6 OUTER ITERATIONS 
       AND A TOTAL OF         11 INNER ITERATIONS.
    ------------------------------------------------

 NO OUTPUT CONTROL FOR STRESS PERIOD    8   TIME STEP   27
 
 SOLVING FOR HEAD 
                                                   Max.-Head-Change                         Max.-Flux-Residual
  Residual-Control   Outer-Iter.   Inner-Iter.     Column Row Layer    Maximum-Head-Change  Column Row Layer    Maximum-Flux-Residual          L2-NORM 
          0                 1           2             5    8     1       0.1370764754E+00       5    8    1         0.7496950316E+01      0.1737052879E+02
          0                 2           2             5    8     1      -0.1509773601E-01       5    8    1        -0.8466847315E+00      0.1943684431E+01
          0                 3           2             4    7     1      -0.6633964529E-01       4    7    1        -0.3560873812E+01      0.8726235454E+01
          0                 4           2             4    7     1       0.6819416452E-01       4    7    1         0.3762232218E+01      0.9213061058E+01
          0                 5           2             4    7     1      -0.1635976952E-01       4    7    1        -0.9277124864E+00      0.2272375533E+01
          0                 6           2             4    7     1      -0.1546625933E-02       4    7    1        -0.8770207020E-01      0.2148156619E+00
          0                 7           2             4    7     1      -0.3448187164E-02       4    7    1        -0.1955309146E+00      0.4789494443E+00
          0                 8           1             4    7     1       0.4261623357E-04       5    8    1         0.2486266854E-02      0.6090998618E-02

    ------------------------------------------------
       NWT REQUIRED            8 OUTER ITERATIONS 
       AND A TOTAL OF         15 INNER ITERATIONS.
    ------------------------------------------------

 NO OUTPUT CONTROL FOR STRESS PERIOD    8   TIME STEP   28
 
 SOLVING FOR HEAD 
                                                   Max.-Head-Change                         Max.-Flux-Residual
  Residual-Control   Outer-Iter.   Inner-Iter.     Column Row Layer    Maximum-Head-Change  Column Row Layer    Maximum-Flux-Residual          L2-NORM 
          0                 1           2             5    8     1       0.1310582131E+00       5    8    1         0.7160649041E+01      0.1676781026E+02
          0                 2           2             5    8     1      -0.1017886162E+00       5    8    1        -0.5618942762E+01      0.1348037415E+02
          0                 3           2             4    7     1      -0.5511822799E+00       4    7    1        -0.2958143487E+02      0.7242296864E+02
          0                 4           2             4    7     1       0.3753702785E-01       4    7    1         0.2070917880E+01      0.5070768499E+01
          0                 5           2             4    7     1      -0.1493995864E-02       4    7    1        -0.8472265257E-01      0.2074814543E+00
          0                 6           1             4    7     1       0.1843528009E-04       4    7    1         0.1074510657E-02      0.2631944207E-02

    ------------------------------------------------
       NWT REQUIRED            6 OUTER ITERATIONS 
       AND A TOTAL OF         11 INNER ITERATIONS.
    ------------------------------------------------

 NO OUTPUT CONTROL FOR STRESS PERIOD    8   TIME STEP   29
 
 SOLVING FOR HEAD 
                                                   Max.-Head-Change                         Max.-Flux-Residual
  Residual-Control   Outer-Iter.   Inner-Iter.     Column Row Layer    Maximum-Head-Change  Column Row Layer    Maximum-Flux-Residual          L2-NORM 
          0                 1           2             5    8     1       0.1435922129E+00       5    8    1         0.7849463796E+01      0.1824241583E+02
          0                 2           2             5    8     1      -0.1559174315E-01       5    8    1        -0.8743727216E+00      0.2014378326E+01
          0                 3           2             4    7     1      -0.6490475371E-01       4    7    1        -0.3483829881E+01      0.8535854212E+01
          0                 4           2             4    7     1       0.6670210325E-01       4    7    1         0.3679875169E+01      0.9011232810E+01
          0                 5           2             4    7     1      -0.1692437881E-01       4    7    1        -0.9597184560E+00      0.2350796015E+01
          0                 6           2             4    7     1      -0.7069010288E-03       4    7    1        -0.4008412087E-01      0.9817827521E-01
          0                 7           1             4    7     1       0.8729741938E-05       5    8    1         0.5094794615E-03      0.1248521760E-02

    ------------------------------------------------
       NWT REQUIRED            7 OUTER ITERATIONS 
       AND A TOTAL OF         13 INNER ITERATIONS.
    ------------------------------------------------

 NO OUTPUT CONTROL FOR STRESS PERIOD    8   TIME STEP   30



 STREAM LISTING     PERIOD      8   STEP       30

 LAYER ROW COL. STREAM  RCH.  FLOW INTO     FLOW TO   FLOW OUT OF   OVRLND.     DIRECT     STREAM       STREAM     STREAM     STREAM   STREAMBED  STREAMBED
                SEG.NO.  NO.  STRM. RCH.    AQUIFER    STRM. RCH.    RUNOFF     PRECIP       ET          HEAD       DEPTH      WIDTH   CONDCTNC.   GRADIENT

   1    1    1     1     1    2.8125E+01  2.5915E-01   2.7866E+01  0.000E+00  0.000E+00  0.000E+00  1.09427E+03  1.223E+00  1.364E+01  6.137E-02  1.408E+00
   1    2    2     1     2    2.7866E+01  4.0087E-01   2.7465E+01  0.000E+00  0.000E+00  0.000E+00  1.08928E+03  1.218E+00  1.358E+01  9.503E-02  1.406E+00
   1    3    3     1     3    2.7465E+01  3.4142E-01   2.7123E+01  0.000E+00  0.000E+00  0.000E+00  1.08363E+03  1.213E+00  1.351E+01  8.103E-02  1.404E+00
   1    3    4     1     4    2.7123E+01  3.1403E-01   2.6809E+01  0.000E+00  0.000E+00  0.000E+00  1.07862E+03  1.209E+00  1.344E+01  7.461E-02  1.403E+00
   1    4    5     2     1    2.4809E+01  3.2739E-01   2.4482E+01  0.000E+00  0.000E+00  0.000E+00  1.07313E+03  1.197E+00  1.200E+01  7.800E-02  1.399E+00
   1    5    6     2     2    2.4482E+01  2.5133E-01   2.4231E+01  0.000E+00  0.000E+00  0.000E+00  1.06770E+03  1.189E+00  1.200E+01  6.000E-02  1.396E+00
   1    6    6     2     3    2.4231E+01  2.5089E-01   2.3980E+01  0.000E+00  0.000E+00  0.000E+00  1.06297E+03  1.181E+00  1.200E+01  6.000E-02  1.394E+00
   1    7    6     2     4    2.3980E+01  2.5044E-01   2.3729E+01  0.000E+00  0.000E+00  0.000E+00  1.05825E+03  1.174E+00  1.200E+01  6.000E-02  1.391E+00
   1    8    6     2     5    2.3729E+01  2.5000E-01   2.3479E+01  0.000E+00  0.000E+00  0.000E+00  1.05353E+03  1.167E+00  1.200E+01  6.000E-02  1.389E+00
   1    3    5     3     1    2.0000E+00  2.8252E-01   1.7175E+00  0.000E+00  0.000E+00  0.000E+00  1.07555E+03  1.909E+00  9.636E+00  7.227E-02  1.955E+00
   1    3    6     3     2    1.7175E+00  2.4905E-01   1.4684E+00  0.000E+00  0.000E+00  0.000E+00  1.07264E+03  1.727E+00  8.909E+00  6.682E-02  1.864E+00
   1    3    7     3     3    1.4684E+00  1.9718E-01   1.2712E+00  0.000E+00  0.000E+00  0.000E+00  1.06987E+03  1.555E+00  8.218E+00  5.547E-02  1.777E+00
   1    4    8     3     4    1.2712E+00  2.2567E-01   1.0456E+00  0.000E+00  0.000E+00  0.000E+00  1.06682E+03  1.364E+00  7.455E+00  6.709E-02  1.682E+00
   1    5    8     3     5    1.0456E+00  1.5790E-01   8.8768E-01  0.000E+00  0.000E+00  0.000E+00  1.06362E+03  1.164E+00  6.655E+00  4.991E-02  1.582E+00
   1    6    8     3     6    8.8768E-01  5.5980E-02   8.3170E-01  0.000E+00  0.000E+00  0.000E+00  1.06158E+03  1.036E+00  6.145E+00  1.844E-02  1.518E+00
   1    5   10     4     1    1.0000E+01  9.0919E-02   9.9091E+00  0.000E+00  0.000E+00  0.000E+00  1.07836E+03  6.368E-01  1.000E+01  2.500E-02  1.212E+00
   1    5    9     4     2    9.9091E+00  1.8158E-01   9.7275E+00  0.000E+00  0.000E+00  0.000E+00  1.07154E+03  6.315E-01  1.000E+01  5.000E-02  1.211E+00
   1    6    8     4     3    9.7275E+00  1.2689E-01   9.6006E+00  0.000E+00  0.000E+00  0.000E+00  1.06381E+03  6.256E-01  1.000E+01  3.500E-02  1.209E+00
   1    6    8     5     1    1.0432E+01  2.2686E-01   1.0205E+01  0.000E+00  0.000E+00  0.000E+00  1.05868E+03  6.790E-01  1.542E+01  6.166E-02  1.226E+00
   1    7    7     5     2    1.0205E+01  2.7894E-01   9.9265E+00  0.000E+00  0.000E+00  0.000E+00  1.05417E+03  6.732E-01  1.519E+01  7.594E-02  1.224E+00
   1    8    7     5     3    9.9265E+00  1.9221E-01   9.7343E+00  0.000E+00  0.000E+00  0.000E+00  1.04992E+03  6.676E-01  1.497E+01  5.241E-02  1.223E+00
   1    8    6     5     4    9.7343E+00  1.3577E-01   9.5985E+00  0.000E+00  0.000E+00  0.000E+00  1.04691E+03  6.637E-01  1.482E+01  3.706E-02  1.221E+00
   1    9    6     6     1    9.5985E+00  2.2097E-01   9.3776E+00  0.000E+00  0.000E+00  0.000E+00  1.04341E+03  6.828E-01  1.200E+01  6.000E-02  1.228E+00
   1   10    7     6     2    9.3776E+00  2.2039E-01   9.1572E+00  0.000E+00  0.000E+00  0.000E+00  1.03885E+03  6.732E-01  1.200E+01  6.000E-02  1.224E+00
   1   11    7     6     3    9.1572E+00  2.1981E-01   8.9374E+00  0.000E+00  0.000E+00  0.000E+00  1.03430E+03  6.636E-01  1.200E+01  6.000E-02  1.221E+00
   1   12    7     6     4    8.9374E+00  2.1923E-01   8.7181E+00  0.000E+00  0.000E+00  0.000E+00  1.02974E+03  6.539E-01  1.200E+01  6.000E-02  1.218E+00
   1   13    7     6     5    8.7181E+00 -6.6643E-02   8.7848E+00  0.000E+00  0.000E+00  0.000E+00  1.02656E+03  6.505E-01  1.200E+01  2.400E-01 -9.256E-02
   1   14    9     7     1    1.5000E+02  1.3683E+00   1.4863E+02  0.000E+00  0.000E+00  0.000E+00  1.03987E+03  2.288E+00  5.529E+01  5.593E-01  8.155E-01
   1   13    8     7     2    1.4863E+02  1.9164E+00   1.4672E+02  0.000E+00  0.000E+00  0.000E+00  1.03478E+03  2.279E+00  5.526E+01  6.148E-01  1.039E+00
   1   13    7     7     3    1.4672E+02  1.5924E+00   1.4512E+02  0.000E+00  0.000E+00  0.000E+00  1.02969E+03  2.270E+00  5.521E+01  5.584E-01  9.506E-01
   1   13    6     8     1    1.5391E+02  9.4094E-01   1.5297E+02  0.000E+00  0.000E+00  0.000E+00  1.02472E+03  2.841E+00  4.119E+01  4.198E-01  7.472E-01
   1   13    5     8     2    1.5297E+02  2.0276E-01   1.5276E+02  0.000E+00  0.000E+00  0.000E+00  1.01846E+03  2.837E+00  4.114E+01  4.192E-01  1.612E-01
   1   13    4     8     3    1.5276E+02 -2.3314E+00   1.5510E+02  0.000E+00  0.000E+00  0.000E+00  1.01222E+03  2.844E+00  4.124E+01  4.203E+00 -1.849E-01
   1   13    3     8     4    1.5510E+02 -3.5901E+00   1.5869E+02  0.000E+00  0.000E+00  0.000E+00  1.00599E+03  2.865E+00  4.154E+01  4.233E+00 -2.827E-01
   1   13    2     8     5    1.5869E+02 -2.5750E+00   1.6126E+02  0.000E+00  0.000E+00  0.000E+00  9.99761E+02  2.886E+00  4.184E+01  4.264E+00 -2.013E-01
   1   13    1     8     6    1.6126E+02 -1.9951E+00   1.6326E+02  0.000E+00  0.000E+00  0.000E+00  9.94776E+02  2.901E+00  4.207E+01  2.572E+00 -2.586E-01
   1    8    6     9     1    2.3479E+01  0.0000E+00   2.3479E+01  0.000E+00  0.000E+00  0.000E+00  1.08253E+03  3.782E+00  4.000E+00  0.000E+00  2.261E+00
   1    8    5     9     2    2.3479E+01  0.0000E+00   2.3479E+01  0.000E+00  0.000E+00  0.000E+00  1.08203E+03  3.782E+00  4.000E+00  0.000E+00  2.261E+00





UNSATURATED ZONE PACKAGE VOLUMETRIC BUDGET FOR  TIME STEP    30 STRESS PERIOD    8
  ------------------------------------------------------------------------------



     CUMULATIVE VOLUMES      L**3       RATES FOR THIS TIME STEP      L**3/T
     ------------------                 ------------------------

           IN:                                      IN:
           ---                                      ---
        INFILTRATION =   426803593.7591          INFILTRATION =          30.5170

          OUT:                                     OUT:
          ----                                     ----
              UZF ET =   261747207.6350                UZF ET =          60.8823
        UZF RECHARGE =       73224.0000          UZF RECHARGE =       0.0000E+00

            IN - OUT =   164983162.1241              IN - OUT =         -30.3653

          STORAGE:                                 STORAGE:
          --------                                 --------
      STORAGE CHANGE =   164983374.5265        STORAGE CHANGE =         -30.3653

 PERCENT DISCREPANCY IS DIFFERENCE BETWEEN IN-OUT MINUS CHANGE IN STORAGE
 DIVIDED BY THE AVERAGE OF IN AND OUT TIMES 100

 PERCENT DISCREPANCY =          -0.00     PERCENT DISCREPANCY =           0.00






1
  VOLUMETRIC BUDGET FOR AGRICULTURAL FIELDS AT  END OF TIME STEP   30, STRESS PERIOD   8
  ------------------------------------------------------------------------------

     CUMULATIVE VOLUMES      L**3       RATES FOR THIS TIME STEP      L**3/T
     ------------------                 ------------------------

           IN:                                      IN:
           ---                                      ---
               AG WELLS  =   263905424.0000                 AG WELLS  =           6.1897
      DIVERSION SEGMENTS =   147262960.0000        DIVERSION SEGMENTS =          23.4793
       IRRIGATION PONDS  =           0.0000         IRRIGATION PONDS  =           0.0000
           GW IRRIGATION =           0.0000             GW IRRIGATION =           0.0000
           SW IRRIGATION =           0.0000             SW IRRIGATION =           0.0000
        SYSTEM LOSSES GW =           0.0000          SYSTEM LOSSES GW =           0.0000
        SYSTEM LOSSES SW =           0.0000          SYSTEM LOSSES SW =           0.0000

                TOTAL IN =   411168384.0000                  TOTAL IN =          29.6690

          OUT:                                     OUT:
          ----                                     ----
               AG WELLS  =           0.0000                 AG WELLS  =           0.0000
      DIVERSION SEGMENTS =           0.0000        DIVERSION SEGMENTS =           0.0000
       IRRIGATION PONDS  =           0.0000         IRRIGATION PONDS  =           0.0000
           GW IRRIGATION =   263905424.0000             GW IRRIGATION =           6.1897
           SW IRRIGATION =   147265824.0000             SW IRRIGATION =          23.4797
        SYSTEM LOSSES GW =           0.0000          SYSTEM LOSSES GW =           0.0000
        SYSTEM LOSSES SW =           0.0000          SYSTEM LOSSES SW =           0.0000

               TOTAL OUT =   411171264.0000                 TOTAL OUT =          29.6695

                IN - OUT =       -2880.0000                  IN - OUT =      -4.6921E-04

     PERCENT DISCREPANCY =          -0.00         PERCENT DISCREPANCY =          -0.00



1
  VOLUMETRIC BUDGET FOR ENTIRE MODEL AT END OF TIME STEP   30, STRESS PERIOD   8
  ------------------------------------------------------------------------------

     CUMULATIVE VOLUMES      L**3       RATES FOR THIS TIME STEP      L**3/T
     ------------------                 ------------------------

           IN:                                      IN:
           ---                                      ---
             STORAGE     =   293569536.0000               STORAGE     =          35.4429
       CONSTANT HEAD     =           0.0000         CONSTANT HEAD     =           0.0000
     HEAD DEP BOUNDS     =     5324802.5000       HEAD DEP BOUNDS     =           0.2880
      STREAM LEAKAGE     =   219418752.0000        STREAM LEAKAGE     =          11.9482
        UZF RECHARGE     =       73223.9531          UZF RECHARGE     =           0.0000
               GW ET     =           0.0000                 GW ET     =           0.0000
     SURFACE LEAKAGE     =           0.0000       SURFACE LEAKAGE     =           0.0000
           AG WELLS      =           0.0000             AG WELLS      =           0.0000

                TOTAL IN =   518386304.0000                  TOTAL IN =          47.6790

          OUT:                                     OUT:
          ----                                     ----
             STORAGE     =    57877312.0000               STORAGE     =          30.6440
       CONSTANT HEAD     =           0.0000         CONSTANT HEAD     =           0.0000
     HEAD DEP BOUNDS     =     5334247.0000       HEAD DEP BOUNDS     =           0.2870
      STREAM LEAKAGE     =   191272112.0000        STREAM LEAKAGE     =          10.5583
        UZF RECHARGE     =           0.0000          UZF RECHARGE     =           0.0000
               GW ET     =           0.0000                 GW ET     =           0.0000
     SURFACE LEAKAGE     =           0.0000       SURFACE LEAKAGE     =           0.0000
           AG WELLS      =   263905424.0000             AG WELLS      =           6.1897

               TOTAL OUT =   518389120.0000                 TOTAL OUT =          47.6790

                IN - OUT =       -2816.0000                  IN - OUT =       4.9591E-05

     PERCENT DISCREPANCY =          -0.00         PERCENT DISCREPANCY =           0.00






         TIME SUMMARY AT END OF TIME STEP   30 IN STRESS PERIOD    8
                    SECONDS     MINUTES      HOURS       DAYS        YEARS
                    -----------------------------------------------------------
   TIME STEP LENGTH  87667.      1461.1      24.352      1.0147     2.77799E-03
 STRESS PERIOD TIME 2.63000E+06  43833.      730.56      30.440     8.33397E-02
         TOTAL TIME 1.84964E+07 3.08274E+05  5137.9      214.08     0.58612    
1
1
                            STRESS PERIOD NO.    9, LENGTH =   2630000.    
                            -----------------------------------------------

                              NUMBER OF TIME STEPS =    30

                               MULTIPLIER FOR DELT =     1.000

                            INITIAL TIME STEP SIZE =   87666.66    

 REUSING NON-PARAMETER GHB CELLS FROM LAST STRESS PERIOD

      2 GHB CELLS

 REUSING STREAM SEGMENT DATA FROM LAST STRESS PERIOD



            AREAL INFILTRATION RATE
 READING ON UNIT   19 WITH FORMAT: (FREE)              

            1           2           3           4           5           6           7           8           9          10
 ........................................................................................................................
   1   1.0000E-10  2.0000E-10   0.000       0.000       0.000       0.000       0.000       0.000       0.000       0.000    
   2   2.0000E-10  1.0000E-10  2.0000E-10   0.000       0.000      8.0000E-10  8.0000E-10  5.0000E-10   0.000       0.000    
   3    0.000      5.0000E-10  1.0000E-10  1.0000E-10  8.0000E-10  8.0000E-10  5.0000E-10  5.0000E-10   0.000       0.000    
   4   8.0000E-10  5.0000E-10  1.0000E-10  1.0000E-10  1.0000E-10  1.0000E-10  1.0000E-10  1.0000E-10  2.0000E-10   0.000    
   5   8.0000E-10  5.0000E-10  1.0000E-10  1.0000E-10  1.0000E-10  1.0000E-10  1.0000E-10  1.0000E-10  1.0000E-10  1.0000E-10
   6   8.0000E-10  5.0000E-10  5.0000E-10  2.0000E-10  2.0000E-10  1.0000E-10  1.0000E-10  1.0000E-10  1.0000E-10  5.0000E-10
   7   8.0000E-10  5.0000E-10  5.0000E-10  2.0000E-10  2.0000E-10  1.0000E-10  1.0000E-10  2.0000E-10  2.0000E-10   0.000    
   8    0.000      5.0000E-10  5.0000E-10  2.0000E-10  2.0000E-10  1.0000E-10  1.0000E-10  2.0000E-10  5.0000E-10   0.000    
   9    0.000      5.0000E-10  5.0000E-10  2.0000E-10  2.0000E-10  1.0000E-10  1.0000E-10  2.0000E-10  5.0000E-10   0.000    
  10    0.000      5.0000E-10  5.0000E-10  2.0000E-10  2.0000E-10  1.0000E-10  1.0000E-10  2.0000E-10  5.0000E-10  8.0000E-10
  11    0.000      1.0000E-10  1.0000E-10  1.0000E-10  1.0000E-10  1.0000E-10  1.0000E-10  2.0000E-10  5.0000E-10   0.000    
  12   1.0000E-10  1.0000E-10  1.0000E-10  1.0000E-10  1.0000E-10  1.0000E-10  1.0000E-10  1.0000E-10  2.0000E-10   0.000    
  13   1.0000E-10  1.0000E-10  2.0000E-10  2.0000E-10  2.0000E-10  2.0000E-10  2.0000E-10  1.0000E-10  1.0000E-10   0.000    
  14    0.000      2.0000E-10  5.0000E-10  5.0000E-10  5.0000E-10  5.0000E-10  5.0000E-10  2.0000E-10  1.0000E-10   0.000    
  15    0.000       0.000      8.0000E-10  8.0000E-10  8.0000E-10  8.0000E-10   0.000       0.000       0.000       0.000    

                  ET RATE =  3.250000E-07

 USING ET EXTINCTION DEPTH FROM PREVIOUS STRESS PERIOD. CURRENT PERIOD IS:       9

 USING EXTINCTION WATER CONTENT FROM PREVIOUS STRESS PERIOD. CURRENT PERIOD IS:       9

 USING AIR ENTRY PRESSURE FROM PREVIOUS STRESS PERIOD. CURRENT PERIOD IS:       9

 USING ROOT PRESSURE HEAD FROM PREVIOUS STRESS PERIOD. CURRENT PERIOD IS:       9

 USING ROOT ACTIVITY FROM PREVIOUS STRESS PERIOD. CURRENT PERIOD IS:       9

 PROCESSING AG STRESS PERIOD DATA

 READING AG STRESS PERIOD DATA

 READING IRRIGATION SEGMENT

 READING IRRIGATION WELL

 READING SUPPLEMENTAL WELL

 NO IRRPOND OR REUSING IRRPOND DATA FROM LAST STRESS PERIOD

 END PROCESSING AG STRESS PERIOD DATA OPTIONS
 
 SOLVING FOR HEAD 
                                                   Max.-Head-Change                         Max.-Flux-Residual
  Residual-Control   Outer-Iter.   Inner-Iter.     Column Row Layer    Maximum-Head-Change  Column Row Layer    Maximum-Flux-Residual          L2-NORM 
          0                 1           2             5    8     1       0.1371764539E+00       5    8    1         0.7492560097E+01      0.1758467531E+02
          0                 2           2             5    6     1      -0.1595343632E+00       5    8    1        -0.8794203275E+01      0.2120405847E+02
          0                 3           2             5    6     1       0.1086361020E-01       5    8    1         0.6155887520E+00      0.1484271009E+01
          0                 4           2             5    6     1      -0.4322736334E-03       5    8    1        -0.2517764167E-01      0.6070683233E-01
          0                 5           1             5    6     1       0.5330112493E-05       5    8    1         0.3190782852E-03      0.7693449638E-03

    ------------------------------------------------
       NWT REQUIRED            5 OUTER ITERATIONS 
       AND A TOTAL OF          9 INNER ITERATIONS.
    ------------------------------------------------

 NO OUTPUT CONTROL FOR STRESS PERIOD    9   TIME STEP    1
 
 SOLVING FOR HEAD 
                                                   Max.-Head-Change                         Max.-Flux-Residual
  Residual-Control   Outer-Iter.   Inner-Iter.     Column Row Layer    Maximum-Head-Change  Column Row Layer    Maximum-Flux-Residual          L2-NORM 
          0                 1           2             5    8     1       0.1349718474E+00       5    8    1         0.7368235403E+01      0.1741607652E+02
          0                 2           2             5    8     1      -0.5649471175E-01       5    8    1        -0.3124712251E+01      0.7404748389E+01
          0                 3           2             4    7     1      -0.1491457649E-01       4    7    1        -0.8008335616E+00      0.1932343241E+01
          0                 4           2             4    7     1       0.1332644646E-01       4    7    1         0.7352092737E+00      0.1798515636E+01
          0                 5           2             4    7     1      -0.5303985718E-03       4    7    1        -0.3007816616E-01      0.7359519592E-01
          0                 6           1             4    7     1       0.6544897954E-05       4    7    1         0.3814766424E-03      0.9337194631E-03

    ------------------------------------------------
       NWT REQUIRED            6 OUTER ITERATIONS 
       AND A TOTAL OF         11 INNER ITERATIONS.
    ------------------------------------------------

 NO OUTPUT CONTROL FOR STRESS PERIOD    9   TIME STEP    2
 
 SOLVING FOR HEAD 
                                                   Max.-Head-Change                         Max.-Flux-Residual
  Residual-Control   Outer-Iter.   Inner-Iter.     Column Row Layer    Maximum-Head-Change  Column Row Layer    Maximum-Flux-Residual          L2-NORM 
          0                 1           2             5    8     1       0.1300565162E+00       5    8    1         0.7094501549E+01      0.1692934813E+02
          0                 2           2             5    6     1      -0.8358518305E-01       5    8    1        -0.4614020862E+01      0.1106644960E+02
          0                 3           2             4    7     1      -0.4051096715E+00       4    7    1        -0.2174108226E+02      0.5322277952E+02
          0                 4           2             4    7     1       0.2758939952E-01       4    7    1         0.1522056770E+01      0.3726491900E+01
          0                 5           2             4    7     1      -0.1098072790E-02       4    7    1        -0.6226830429E-01      0.1524775514E+00
          0                 6           1             4    7     1       0.1354975862E-04       4    7    1         0.7897297778E-03      0.1934215598E-02

    ------------------------------------------------
       NWT REQUIRED            6 OUTER ITERATIONS 
       AND A TOTAL OF         11 INNER ITERATIONS.
    ------------------------------------------------

 NO OUTPUT CONTROL FOR STRESS PERIOD    9   TIME STEP    3
 
 SOLVING FOR HEAD 
                                                   Max.-Head-Change                         Max.-Flux-Residual
  Residual-Control   Outer-Iter.   Inner-Iter.     Column Row Layer    Maximum-Head-Change  Column Row Layer    Maximum-Flux-Residual          L2-NORM 
          0                 1           2             5    8     1       0.1380235538E+00       5    8    1         0.7531797989E+01      0.1786674614E+02
          0                 2           2             5    8     1      -0.1342559074E-01       5    8    1        -0.7531601241E+00      0.1788554316E+01
          0                 3           2             4    7     1      -0.1167557488E-01       4    7    1        -0.6269984858E+00      0.1510677074E+01
          0                 4           2             4    7     1       0.1126603719E-01       4    7    1         0.6215373590E+00      0.1520091389E+01
          0                 5           2             4    7     1      -0.1181787482E-01       4    7    1        -0.6701217750E+00      0.1650422022E+01
          0                 6           2             4    7     1       0.2488790771E-02       5    8    1         0.1450536264E+00      0.3776837398E+00
          0                 7           2             4    7     1       0.8991439370E-02       4    7    1         0.5240124071E+00      0.1283625641E+01
          0                 8           2             4    7     1      -0.1065447580E-01       5    8    1        -0.6381404112E+00      0.1572408224E+01
          0                 9           2             4   13     1      -0.4550461443E-03       4   13    1        -0.2673875679E-01      0.6809789959E-01
          0                10           2             4    7     1       0.3999784444E-02       5    8    1         0.2461742440E+00      0.6030084823E+00
                                                   Max.-Head-Change                         Max.-Flux-Residual
  Residual-Control   Outer-Iter.   Inner-Iter.     Column Row Layer    Maximum-Head-Change  Column Row Layer    Maximum-Flux-Residual          L2-NORM 
          0                11           2             4    7     1       0.2679889228E-03       4    7    1         0.1649342620E-01      0.4039803126E-01
          0                12           1             4    7     1       0.1795281008E-04       4    7    1         0.1104875811E-02      0.2706113187E-02

    ------------------------------------------------
       NWT REQUIRED           12 OUTER ITERATIONS 
       AND A TOTAL OF         23 INNER ITERATIONS.
    ------------------------------------------------

 NO OUTPUT CONTROL FOR STRESS PERIOD    9   TIME STEP    4
 
 SOLVING FOR HEAD 
                                                   Max.-Head-Change                         Max.-Flux-Residual
  Residual-Control   Outer-Iter.   Inner-Iter.     Column Row Layer    Maximum-Head-Change  Column Row Layer    Maximum-Flux-Residual          L2-NORM 
          0                 1           2             5    8     1       0.1318014508E+00       5    8    1         0.7186047376E+01      0.1723636432E+02
          0                 2           2             5    6     1      -0.7051072482E-01       5    8    1        -0.3894629673E+01      0.9328183092E+01
          0                 3           2             4    7     1      -0.5068288270E+00       4    7    1        -0.2719970107E+02      0.6659465840E+02
          0                 4           2             4    7     1       0.3451659348E-01       4    7    1         0.1904189185E+01      0.4662714771E+01
          0                 5           2             4    7     1      -0.1373780183E-02       4    7    1        -0.7790164454E-01      0.1907850145E+00
          0                 6           1             4    7     1       0.1695187012E-04       4    7    1         0.9880021857E-03      0.2420147501E-02

    ------------------------------------------------
       NWT REQUIRED            6 OUTER ITERATIONS 
       AND A TOTAL OF         11 INNER ITERATIONS.
    ------------------------------------------------

 NO OUTPUT CONTROL FOR STRESS PERIOD    9   TIME STEP    5
 
 SOLVING FOR HEAD 
                                                   Max.-Head-Change                         Max.-Flux-Residual
  Residual-Control   Outer-Iter.   Inner-Iter.     Column Row Layer    Maximum-Head-Change  Column Row Layer    Maximum-Flux-Residual          L2-NORM 
          0                 1           2             5    8     1       0.1422783148E+00       5    8    1         0.7761884287E+01      0.1844627015E+02
          0                 2           2             5    8     1      -0.1383949912E-01       5    8    1        -0.7761675462E+00      0.1846419628E+01
          0                 3           2             4    7     1      -0.6575365416E-02       4    7    1        -0.3532844723E+00      0.8382675513E+00
          0                 4           2             4    7     1       0.7404633804E-02       4    7    1         0.4085139889E+00      0.9982787861E+00
          0                 5           2             4    7     1      -0.2909247087E-03       4    7    1        -0.1649827190E-01      0.4032442459E-01
          0                 6           1             4    7     1       0.3589890649E-05       4    7    1         0.2092455843E-03      0.5116096336E-03

    ------------------------------------------------
       NWT REQUIRED            6 OUTER ITERATIONS 
       AND A TOTAL OF         11 INNER ITERATIONS.
    ------------------------------------------------

 NO OUTPUT CONTROL FOR STRESS PERIOD    9   TIME STEP    6
 
 SOLVING FOR HEAD 
                                                   Max.-Head-Change                         Max.-Flux-Residual
  Residual-Control   Outer-Iter.   Inner-Iter.     Column Row Layer    Maximum-Head-Change  Column Row Layer    Maximum-Flux-Residual          L2-NORM 
          0                 1           2             5    8     1       0.1356469595E+00       5    8    1         0.7393530086E+01      0.1777102647E+02
          0                 2           2             5    6     1      -0.1538261400E+00       5    8    1        -0.8475119333E+01      0.2050671328E+02
          0                 3           2             4    7     1       0.5574631383E-01       5    8    1         0.3095713509E+01      0.7563423195E+01
          0                 4           2             4    7     1      -0.2218214880E-02       5    8    1        -0.1265910476E+00      0.3093263208E+00
          0                 5           1             4    7     1       0.2735152386E-04       5    6    1         0.1602676719E-02      0.3923156011E-02

    ------------------------------------------------
       NWT REQUIRED            5 OUTER ITERATIONS 
       AND A TOTAL OF          9 INNER ITERATIONS.
    ------------------------------------------------

 NO OUTPUT CONTROL FOR STRESS PERIOD    9   TIME STEP    7
 
 SOLVING FOR HEAD 
                                                   Max.-Head-Change                         Max.-Flux-Residual
  Residual-Control   Outer-Iter.   Inner-Iter.     Column Row Layer    Maximum-Head-Change  Column Row Layer    Maximum-Flux-Residual          L2-NORM 
          0                 1           2             5    8     1       0.1322654159E+00       5    8    1         0.7204873350E+01      0.1744857557E+02
          0                 2           2             5    6     1      -0.1032962845E+00       5    8    1        -0.5695215622E+01      0.1373921037E+02
          0                 3           2             4    7     1      -0.1685895992E+00       4    7    1        -0.9047692527E+01      0.2213411036E+02
          0                 4           2             4    7     1       0.1148178473E-01       4    7    1         0.6334305413E+00      0.1549793899E+01
          0                 5           2             4    7     1      -0.4569800726E-03       4    7    1        -0.2591404399E-01      0.6341371223E-01
          0                 6           1             4    7     1       0.5638944486E-05       4    7    1         0.3286607810E-03      0.8044337040E-03

    ------------------------------------------------
       NWT REQUIRED            6 OUTER ITERATIONS 
       AND A TOTAL OF         11 INNER ITERATIONS.
    ------------------------------------------------

 NO OUTPUT CONTROL FOR STRESS PERIOD    9   TIME STEP    8
 
 SOLVING FOR HEAD 
                                                   Max.-Head-Change                         Max.-Flux-Residual
  Residual-Control   Outer-Iter.   Inner-Iter.     Column Row Layer    Maximum-Head-Change  Column Row Layer    Maximum-Flux-Residual          L2-NORM 
          0                 1           2             5    8     1       0.1340666481E+00       5    8    1         0.7302354969E+01      0.1768868621E+02
          0                 2           2             5    8     1      -0.1443269672E-01       5    8    1        -0.8068604363E+00      0.1935438541E+01
          0                 3           2             4    7     1      -0.2628857005E-01       4    7    1        -0.1411099968E+01      0.3447624011E+01
          0                 4           2             4    7     1       0.2738238466E-01       4    7    1         0.1510579437E+01      0.3698210300E+01
          0                 5           2             4   13     1      -0.1239721366E-03       4   13    1        -0.7294141747E-02      0.1337572915E-01
          0                 6           2             4    7     1      -0.3055198775E-03       5    6    1        -0.1732407970E-01      0.4534383325E-01
          0                 7           2             4    7     1      -0.5194949923E-02       4    7    1        -0.2945622708E+00      0.7265872780E+00
          0                 8           2             4    7     1       0.5339621749E-02       5    8    1         0.3111827854E+00      0.7624856001E+00
          0                 9           2             4    7     1      -0.1224591632E-01       5    8    1        -0.7334329402E+00      0.1806633529E+01
          0                10           2             4    7     1       0.6845508159E-03       5    8    1         0.4213980057E-01      0.1037860303E+00
                                                   Max.-Head-Change                         Max.-Flux-Residual
  Residual-Control   Outer-Iter.   Inner-Iter.     Column Row Layer    Maximum-Head-Change  Column Row Layer    Maximum-Flux-Residual          L2-NORM 
          0                11           2             4    7     1       0.1789887569E-03       5    8    1         0.1101615592E-01      0.2698687502E-01
          0                12           1             4    7     1       0.1199076526E-04       4    7    1         0.7379538363E-03      0.1807517522E-02

    ------------------------------------------------
       NWT REQUIRED           12 OUTER ITERATIONS 
       AND A TOTAL OF         23 INNER ITERATIONS.
    ------------------------------------------------

 NO OUTPUT CONTROL FOR STRESS PERIOD    9   TIME STEP    9
 
 SOLVING FOR HEAD 
                                                   Max.-Head-Change                         Max.-Flux-Residual
  Residual-Control   Outer-Iter.   Inner-Iter.     Column Row Layer    Maximum-Head-Change  Column Row Layer    Maximum-Flux-Residual          L2-NORM 
          0                 1           2             5    8     1       0.1284047440E+00       5    8    1         0.6988118369E+01      0.1711337623E+02
          0                 2           2             5    6     1      -0.6769490749E-01       5    8    1        -0.3735418434E+01      0.8997327555E+01
          0                 3           2             5    6     1       0.4061008612E-02       5    8    1         0.2304687335E+00      0.5563869987E+00
          0                 4           2             4    7     1      -0.8050972010E-03       5    8    1        -0.4632289139E-01      0.1129190511E+00
          0                 5           2             4    7     1      -0.1184925906E-02       4    7    1        -0.6718850607E-01      0.1645646709E+00
          0                 6           2             4    7     1      -0.1207703890E-02       5    8    1        -0.6847947967E-01      0.1677386110E+00
          0                 7           2             4    7     1      -0.1261047294E-02       5    8    1        -0.7150331830E-01      0.1751456083E+00
          0                 8           2             4    7     1      -0.1350555755E-02       5    8    1        -0.7657782871E-01      0.1875755187E+00
          0                 9           2             4    7     1      -0.1235795434E-01       5    8    1        -0.7007003169E+00      0.1716357058E+01
          0                10           2             4    7     1      -0.1236113792E-02       5    8    1        -0.7008857231E-01      0.1716717796E+00
                                                   Max.-Head-Change                         Max.-Flux-Residual
  Residual-Control   Outer-Iter.   Inner-Iter.     Column Row Layer    Maximum-Head-Change  Column Row Layer    Maximum-Flux-Residual          L2-NORM 
          0                11           2             4    7     1      -0.1322344578E-01       4    7    1        -0.7497588488E+00      0.1836525762E+01
          0                12           2             4    7     1       0.1639503478E-03       5    6    1         0.9562733007E-02      0.2342579682E-01
          0                13           1             4    7     1       0.2400123621E-05       5    8    1         0.1400673543E-03      0.3430944758E-03

    ------------------------------------------------
       NWT REQUIRED           13 OUTER ITERATIONS 
       AND A TOTAL OF         25 INNER ITERATIONS.
    ------------------------------------------------

 NO OUTPUT CONTROL FOR STRESS PERIOD    9   TIME STEP   10
 
 SOLVING FOR HEAD 
                                                   Max.-Head-Change                         Max.-Flux-Residual
  Residual-Control   Outer-Iter.   Inner-Iter.     Column Row Layer    Maximum-Head-Change  Column Row Layer    Maximum-Flux-Residual          L2-NORM 
          0                 1           2             5    8     1       0.1253722208E+00       5    8    1         0.6819256650E+01      0.1681743750E+02
          0                 2           2             5    6     1      -0.6936406480E-01       5    8    1        -0.3825503967E+01      0.9236269752E+01
          0                 3           2             4    7     1      -0.5096525392E+00       4    7    1        -0.2735052206E+02      0.6697195649E+02
          0                 4           2             4    7     1       0.3470889103E-01       4    7    1         0.1914747378E+01      0.4689129084E+01
          0                 5           2             4    7     1      -0.1381433765E-02       4    7    1        -0.7833358638E-01      0.1918656469E+00
          0                 6           1             4    7     1       0.1704631205E-04       4    7    1         0.9934803402E-03      0.2433852344E-02

    ------------------------------------------------
       NWT REQUIRED            6 OUTER ITERATIONS 
       AND A TOTAL OF         11 INNER ITERATIONS.
    ------------------------------------------------

 NO OUTPUT CONTROL FOR STRESS PERIOD    9   TIME STEP   11
 
 SOLVING FOR HEAD 
                                                   Max.-Head-Change                         Max.-Flux-Residual
  Residual-Control   Outer-Iter.   Inner-Iter.     Column Row Layer    Maximum-Head-Change  Column Row Layer    Maximum-Flux-Residual          L2-NORM 
          0                 1           2             5    8     1       0.1364878275E+00       5    8    1         0.7431046272E+01      0.1805394581E+02
          0                 2           2             5    8     1      -0.1327625746E-01       5    8    1        -0.7430849588E+00      0.1807327048E+01
          0                 3           2             4    7     1      -0.6405099832E-02       4    7    1        -0.3440319904E+00      0.8225966196E+00
          0                 4           2             4    7     1       0.7278217311E-02       4    7    1         0.4015239973E+00      0.9816711303E+00
          0                 5           2             4    7     1      -0.2858679630E-03       4    7    1        -0.1621087341E-01      0.3964126789E-01
          0                 6           1             4    7     1       0.3527492430E-05       4    7    1         0.2056005574E-03      0.5029468909E-03

    ------------------------------------------------
       NWT REQUIRED            6 OUTER ITERATIONS 
       AND A TOTAL OF         11 INNER ITERATIONS.
    ------------------------------------------------

 NO OUTPUT CONTROL FOR STRESS PERIOD    9   TIME STEP   12
 
 SOLVING FOR HEAD 
                                                   Max.-Head-Change                         Max.-Flux-Residual
  Residual-Control   Outer-Iter.   Inner-Iter.     Column Row Layer    Maximum-Head-Change  Column Row Layer    Maximum-Flux-Residual          L2-NORM 
          0                 1           2             5    8     1       0.1303869703E+00       5    8    1         0.7092619431E+01      0.1743120102E+02
          0                 2           2             5    7     1      -0.1539190854E+00       5    8    1        -0.8451368436E+01      0.2051734450E+02
          0                 3           2             4    7     1       0.5598454301E-01       5    8    1         0.3103996943E+01      0.7588691101E+01
          0                 4           2             4    7     1      -0.2227694617E-02       5    8    1        -0.1269281021E+00      0.3103583815E+00
          0                 5           1             4    7     1       0.2746841246E-04       5    6    1         0.1606963441E-02      0.3936498738E-02

    ------------------------------------------------
       NWT REQUIRED            5 OUTER ITERATIONS 
       AND A TOTAL OF          9 INNER ITERATIONS.
    ------------------------------------------------

 NO OUTPUT CONTROL FOR STRESS PERIOD    9   TIME STEP   13
 
 SOLVING FOR HEAD 
                                                   Max.-Head-Change                         Max.-Flux-Residual
  Residual-Control   Outer-Iter.   Inner-Iter.     Column Row Layer    Maximum-Head-Change  Column Row Layer    Maximum-Flux-Residual          L2-NORM 
          0                 1           2             5    8     1       0.1274913548E+00       5    8    1         0.6931366255E+01      0.1715070446E+02
          0                 2           2             5    6     1      -0.1029072817E+00       5    8    1        -0.5669436630E+01      0.1373877652E+02
          0                 3           2             4    7     1      -0.1685534573E+00       4    7    1        -0.9045474033E+01      0.2213524627E+02
          0                 4           2             4    7     1       0.1147930665E-01       4    7    1         0.6332742798E+00      0.1549870428E+01
          0                 5           2             4    7     1      -0.4568814408E-03       4    7    1        -0.2590764972E-01      0.6341673242E-01
          0                 6           1             4    7     1       0.5637727545E-05       4    7    1         0.3285796761E-03      0.8045649193E-03

    ------------------------------------------------
       NWT REQUIRED            6 OUTER ITERATIONS 
       AND A TOTAL OF         11 INNER ITERATIONS.
    ------------------------------------------------

 NO OUTPUT CONTROL FOR STRESS PERIOD    9   TIME STEP   14
 
 SOLVING FOR HEAD 
                                                   Max.-Head-Change                         Max.-Flux-Residual
  Residual-Control   Outer-Iter.   Inner-Iter.     Column Row Layer    Maximum-Head-Change  Column Row Layer    Maximum-Flux-Residual          L2-NORM 
          0                 1           2             5    8     1       0.1297423159E+00       5    8    1         0.7054193202E+01      0.1741977649E+02
          0                 2           2             5    8     1      -0.1401313598E-01       5    8    1        -0.7821029961E+00      0.1911130021E+01
          0                 3           2             4    7     1      -0.2623649991E-01       4    7    1        -0.1408186195E+01      0.3446618126E+01
          0                 4           2             4    7     1       0.2737647019E-01       4    7    1         0.1510217194E+01      0.3697755646E+01
          0                 5           2             4   13     1      -0.1237036797E-03       4   13    1        -0.7278363344E-02      0.1337232517E-01
          0                 6           2             4    7     1      -0.3044922688E-03       5    6    1        -0.1726532950E-01      0.4518987621E-01
          0                 7           2             4    7     1      -0.5154139839E-02       4    7    1        -0.2922425612E+00      0.7208707547E+00
          0                 8           2             4    7     1       0.5313385847E-02       5    8    1         0.3096477422E+00      0.7587158284E+00
          0                 9           2             4    7     1      -0.1198517223E-01       5    8    1        -0.7178024766E+00      0.1768127446E+01
          0                10           2             4    7     1       0.3142743930E-03       5    8    1         0.1935036778E-01      0.4773402166E-01
                                                   Max.-Head-Change                         Max.-Flux-Residual
  Residual-Control   Outer-Iter.   Inner-Iter.     Column Row Layer    Maximum-Head-Change  Column Row Layer    Maximum-Flux-Residual          L2-NORM 
          0                11           2             4    7     1       0.4897556017E-03       5    8    1         0.3014192055E-01      0.7383202906E-01
          0                12           1             4    7     1       0.3280957072E-04       4    7    1         0.2019174876E-02      0.4945658623E-02

    ------------------------------------------------
       NWT REQUIRED           12 OUTER ITERATIONS 
       AND A TOTAL OF         23 INNER ITERATIONS.
    ------------------------------------------------

 NO OUTPUT CONTROL FOR STRESS PERIOD    9   TIME STEP   15
 
 SOLVING FOR HEAD 
                                                   Max.-Head-Change                         Max.-Flux-Residual
  Residual-Control   Outer-Iter.   Inner-Iter.     Column Row Layer    Maximum-Head-Change  Column Row Layer    Maximum-Flux-Residual          L2-NORM 
          0                 1           2             5    6     1       0.1245001381E+00       5    8    1         0.6762974979E+01      0.1688460658E+02
          0                 2           2             5    6     1      -0.6731771175E-01       5    8    1        -0.3711171450E+01      0.8990534933E+01
          0                 3           2             5    6     1       0.4005677346E-02       5    8    1         0.2270965881E+00      0.5517667423E+00
          0                 4           2             4    7     1      -0.1013304234E-02       5    8    1        -0.5796618596E-01      0.1415802608E+00
          0                 5           2             4    7     1      -0.3805075952E-02       4    7    1        -0.2157536374E+00      0.5284765529E+00
          0                 6           2             4    7     1      -0.1316497093E-02       5    8    1        -0.7464956278E-01      0.1828490370E+00
          0                 7           2             4    7     1      -0.1232733867E-01       5    8    1        -0.6989656844E+00      0.1712107904E+01
          0                 8           2             4    7     1      -0.1209063578E-02       5    8    1        -0.6856288189E-01      0.1679317095E+00
          0                 9           2             4    7     1      -0.1387002787E-02       5    8    1        -0.7864255178E-01      0.1926332023E+00
          0                10           2             4    7     1      -0.1394563517E-02       5    8    1        -0.7907094641E-01      0.1936819185E+00
                                                   Max.-Head-Change                         Max.-Flux-Residual
  Residual-Control   Outer-Iter.   Inner-Iter.     Column Row Layer    Maximum-Head-Change  Column Row Layer    Maximum-Flux-Residual          L2-NORM 
          0                11           2             4    7     1      -0.1396931505E-02       5    8    1        -0.7920441036E-01      0.1940088541E+00
          0                12           2             4    7     1      -0.1413032115E-02       5    8    1        -0.8011649475E-01      0.1962429919E+00
          0                13           2             4    7     1      -0.1414313307E-01       5    8    1        -0.8018743694E+00      0.1964181468E+01
          0                14           2             4    7     1       0.1756281785E-03       4    8    1         0.1023850840E-01      0.2507485707E-01
          0                15           1             4    7     1       0.2567672445E-05       5    8    1         0.1498899771E-03      0.3674463399E-03

    ------------------------------------------------
       NWT REQUIRED           15 OUTER ITERATIONS 
       AND A TOTAL OF         29 INNER ITERATIONS.
    ------------------------------------------------

 NO OUTPUT CONTROL FOR STRESS PERIOD    9   TIME STEP   16
 
 SOLVING FOR HEAD 
                                                   Max.-Head-Change                         Max.-Flux-Residual
  Residual-Control   Outer-Iter.   Inner-Iter.     Column Row Layer    Maximum-Head-Change  Column Row Layer    Maximum-Flux-Residual          L2-NORM 
          0                 1           2             5    6     1       0.1221878727E+00       5    8    1         0.6627268404E+01      0.1664404810E+02
          0                 2           2             5    6     1      -0.6590176327E-01       5    8    1        -0.3632122085E+01      0.8812056012E+01
          0                 3           2             5    6     1       0.2678388587E-02       5    8    1         0.1520078837E+00      0.3707824010E+00
          0                 4           2             4    7     1       0.4306022382E-03       4    7    1         0.2376072090E-01      0.5766000395E-01
          0                 5           2             4    7     1      -0.1193701160E-01       4    7    1        -0.6768457036E+00      0.1657898375E+01
          0                 6           2             4    7     1      -0.1168625478E-02       4    7    1        -0.6626133373E-01      0.1622982215E+00
          0                 7           2             4    7     1      -0.1344633906E-02       4    7    1        -0.7624102948E-01      0.1867504856E+00
          0                 8           2             4    7     1      -0.1329731077E-01       4    7    1        -0.7539535982E+00      0.1846800442E+01
          0                 9           2             4    7     1      -0.8574370410E-02       4    7    1        -0.4861586644E+00      0.1190829545E+01
          0                10           2             4    7     1       0.1061398707E-03       5    8    1         0.6191662816E-02      0.1516882753E-01
          0                11           1             4    7     1       0.1555906743E-05       5    8    1         0.9076281071E-04      0.2223579276E-03

    ------------------------------------------------
       NWT REQUIRED           11 OUTER ITERATIONS 
       AND A TOTAL OF         21 INNER ITERATIONS.
    ------------------------------------------------

 NO OUTPUT CONTROL FOR STRESS PERIOD    9   TIME STEP   17
 
 SOLVING FOR HEAD 
                                                   Max.-Head-Change                         Max.-Flux-Residual
  Residual-Control   Outer-Iter.   Inner-Iter.     Column Row Layer    Maximum-Head-Change  Column Row Layer    Maximum-Flux-Residual          L2-NORM 
          0                 1           2             5    6     1       0.1199198504E+00       5    8    1         0.6494809933E+01      0.1640628301E+02
          0                 2           2             5    6     1      -0.6598751308E-01       5    8    1        -0.3635712964E+01      0.8835303936E+01
          0                 3           2             5    6     1       0.2984267420E-02       5    8    1         0.1692143774E+00      0.4132228537E+00
          0                 4           1             7   13     1       0.6414858171E-04       7   13    1         0.3675489755E-02      0.5831563589E-02

    ------------------------------------------------
       NWT REQUIRED            4 OUTER ITERATIONS 
       AND A TOTAL OF          7 INNER ITERATIONS.
    ------------------------------------------------

 NO OUTPUT CONTROL FOR STRESS PERIOD    9   TIME STEP   18
 
 SOLVING FOR HEAD 
                                                   Max.-Head-Change                         Max.-Flux-Residual
  Residual-Control   Outer-Iter.   Inner-Iter.     Column Row Layer    Maximum-Head-Change  Column Row Layer    Maximum-Flux-Residual          L2-NORM 
          0                 1           2             5    6     1       0.1167389019E+00       5    6    1         0.6318476188E+01      0.1606427995E+02
          0                 2           2             5    7     1      -0.1038640146E+00       5    6    1        -0.5684723665E+01      0.1384704378E+02
          0                 3           2             4    7     1      -0.1562061956E+00       4    7    1        -0.8382668070E+01      0.2051951891E+02
          0                 4           2             4    7     1       0.1063840745E-01       4    7    1         0.5868718157E+00      0.1436740200E+01
          0                 5           2             4    7     1      -0.4234132286E-03       4    7    1        -0.2400929324E-01      0.5878763495E-01
          0                 6           1             4    7     1       0.5224743839E-05       4    7    1         0.3045033593E-03      0.7457451891E-03

    ------------------------------------------------
       NWT REQUIRED            6 OUTER ITERATIONS 
       AND A TOTAL OF         11 INNER ITERATIONS.
    ------------------------------------------------

 NO OUTPUT CONTROL FOR STRESS PERIOD    9   TIME STEP   19
 
 SOLVING FOR HEAD 
                                                   Max.-Head-Change                         Max.-Flux-Residual
  Residual-Control   Outer-Iter.   Inner-Iter.     Column Row Layer    Maximum-Head-Change  Column Row Layer    Maximum-Flux-Residual          L2-NORM 
          0                 1           2             5    6     1       0.1192434238E+00       5    8    1         0.6456666042E+01      0.1635217358E+02
          0                 2           2             5    6     1      -0.1292147412E-01       5    8    1        -0.7183554966E+00      0.1798014178E+01
          0                 3           2             4    7     1      -0.2754661203E-01       4    7    1        -0.1478372020E+01      0.3626553546E+01
          0                 4           2             4    7     1       0.2795499256E-01       4    7    1         0.1542107344E+01      0.3776403502E+01
          0                 5           2             4    7     1       0.7665555762E-03       5    6    1         0.4229342590E-01      0.1041443775E+00
          0                 6           2             4    7     1      -0.3662257409E-02       5    8    1        -0.2076533283E+00      0.5121111228E+00
          0                 7           2             4    7     1      -0.4578674282E-02       4    7    1        -0.2596105140E+00      0.6476526628E+00
          0                 8           2             4    7     1       0.7631180113E-02       5    8    1         0.4447151079E+00      0.1089364718E+01
          0                 9           2             4    7     1       0.2374231659E-03       4    7    1         0.1383540686E-01      0.3727474674E-01
          0                10           2             4    7     1      -0.1877780138E-03       5    8    1        -0.1124628667E-01      0.3284756502E-01
                                                   Max.-Head-Change                         Max.-Flux-Residual
  Residual-Control   Outer-Iter.   Inner-Iter.     Column Row Layer    Maximum-Head-Change  Column Row Layer    Maximum-Flux-Residual          L2-NORM 
          0                11           2             4   13     1      -0.1732767092E-03       4   13    1        -0.1018333624E-01      0.1896387221E-01
          0                12           2             4    7     1      -0.1071919645E-01       4    7    1        -0.6419523936E+00      0.1572750369E+01
          0                13           2             4    7     1       0.3978051755E-03       5    8    1         0.2448942728E-01      0.6001699331E-01
          0                14           1             4    7     1       0.2664227979E-04       5    8    1         0.1640026070E-02      0.4017709528E-02

    ------------------------------------------------
       NWT REQUIRED           14 OUTER ITERATIONS 
       AND A TOTAL OF         27 INNER ITERATIONS.
    ------------------------------------------------

 NO OUTPUT CONTROL FOR STRESS PERIOD    9   TIME STEP   20
 
 SOLVING FOR HEAD 
                                                   Max.-Head-Change                         Max.-Flux-Residual
  Residual-Control   Outer-Iter.   Inner-Iter.     Column Row Layer    Maximum-Head-Change  Column Row Layer    Maximum-Flux-Residual          L2-NORM 
          0                 1           2             5    6     1       0.1149011413E+00       5    6    1         0.6216033460E+01      0.1588274006E+02
          0                 2           2             5    7     1      -0.6643642267E-01       5    6    1        -0.3648153097E+01      0.8895097639E+01
          0                 3           2             5    7     1       0.3796631813E-02       5    6    1         0.2148270205E+00      0.5258494466E+00
          0                 4           2             4    7     1      -0.7961657826E-03       5    6    1        -0.4546546793E-01      0.1111618939E+00
          0                 5           2             4    7     1      -0.1363287319E-02       4    7    1        -0.7729973957E-01      0.1893387091E+00
          0                 6           2             4    7     1      -0.1395171815E-02       5    8    1        -0.7910786208E-01      0.1937715506E+00
          0                 7           2             4    7     1      -0.6860237507E-02       5    8    1        -0.3889753034E+00      0.9527887170E+00
          0                 8           2             4    7     1      -0.1246912911E-02       5    8    1        -0.7070414243E-01      0.1731780532E+00
          0                 9           2             4    7     1      -0.1301774644E-01       5    8    1        -0.7380900844E+00      0.1807942285E+01
          0                10           2             4    7     1      -0.1201048929E-02       5    8    1        -0.6810694695E-01      0.1668073142E+00
                                                   Max.-Head-Change                         Max.-Flux-Residual
  Residual-Control   Outer-Iter.   Inner-Iter.     Column Row Layer    Maximum-Head-Change  Column Row Layer    Maximum-Flux-Residual          L2-NORM 
          0                11           2             4    7     1      -0.1366500389E-02       5    8    1        -0.7747775962E-01      0.1897795384E+00
          0                12           2             4    7     1      -0.1410238045E-02       5    8    1        -0.7995728951E-01      0.1958522886E+00
          0                13           2             4    7     1      -0.1413475436E-01       5    8    1        -0.8013914530E+00      0.1962997815E+01
          0                14           2             4    7     1       0.1755241332E-03       4    6    1         0.1023360847E-01      0.2506795218E-01
          0                15           1             4    7     1       0.2566150910E-05       5    8    1         0.1497993710E-03      0.3670663676E-03

    ------------------------------------------------
       NWT REQUIRED           15 OUTER ITERATIONS 
       AND A TOTAL OF         29 INNER ITERATIONS.
    ------------------------------------------------

 NO OUTPUT CONTROL FOR STRESS PERIOD    9   TIME STEP   21
 
 SOLVING FOR HEAD 
                                                   Max.-Head-Change                         Max.-Flux-Residual
  Residual-Control   Outer-Iter.   Inner-Iter.     Column Row Layer    Maximum-Head-Change  Column Row Layer    Maximum-Flux-Residual          L2-NORM 
          0                 1           2             5    6     1       0.1132760826E+00       5    6    1         0.6126152295E+01      0.1570961697E+02
          0                 2           2             5    7     1      -0.6353887590E-01       5    6    1        -0.3485962439E+01      0.8506137254E+01
          0                 3           2             7   13     1      -0.9512751869E-03       7   13    1        -0.5299018421E-01      0.1156900031E+00
          0                 4           2             4    7     1       0.2090915966E-02       4    7    1         0.1153451354E+00      0.2821145594E+00
          0                 5           2             4    7     1      -0.1239241897E-02       4    7    1        -0.7026646782E-01      0.1721008790E+00
          0                 6           2             4    7     1      -0.1197990547E-02       4    7    1        -0.6792637152E-01      0.1663841576E+00
          0                 7           2             4    7     1      -0.1293503150E-02       4    7    1        -0.7334124519E-01      0.1796476034E+00
          0                 8           2             4    7     1      -0.1198373252E-01       4    7    1        -0.6794679416E+00      0.1664348637E+01
          0                 9           2             4    7     1      -0.1249213693E-02       4    7    1        -0.7082800359E-01      0.1734837415E+00
          0                10           2             4    7     1      -0.1389338608E-01       4    7    1        -0.7877280726E+00      0.1929530621E+01
                                                   Max.-Head-Change                         Max.-Flux-Residual
  Residual-Control   Outer-Iter.   Inner-Iter.     Column Row Layer    Maximum-Head-Change  Column Row Layer    Maximum-Flux-Residual          L2-NORM 
          0                11           2             4    7     1       0.1721172920E-03       5    8    1         0.1004003246E-01      0.2459645648E-01
          0                12           1             4    7     1       0.2521401567E-05       5    8    1         0.1470781806E-03      0.3603178024E-03

    ------------------------------------------------
       NWT REQUIRED           12 OUTER ITERATIONS 
       AND A TOTAL OF         23 INNER ITERATIONS.
    ------------------------------------------------

 NO OUTPUT CONTROL FOR STRESS PERIOD    9   TIME STEP   22
 
 SOLVING FOR HEAD 
                                                   Max.-Head-Change                         Max.-Flux-Residual
  Residual-Control   Outer-Iter.   Inner-Iter.     Column Row Layer    Maximum-Head-Change  Column Row Layer    Maximum-Flux-Residual          L2-NORM 
          0                 1           2             5    6     1       0.1113458913E+00       5    6    1         0.6019573908E+01      0.1550165157E+02
          0                 2           2             5    7     1      -0.6707394157E-01       5    6    1        -0.3671929890E+01      0.8971975423E+01
          0                 3           2             4    7     1      -0.5097179568E+00       4    7    1        -0.2735304722E+02      0.6699121108E+02
          0                 4           2             4    7     1       0.3471331527E-01       4    7    1         0.1914922159E+01      0.4690469035E+01
          0                 5           2             4    7     1      -0.1381609835E-02       5    8    1        -0.7835198001E-01      0.1919201302E+00
          0                 6           1             4    7     1       0.1704848493E-04       5    8    1         0.9938855089E-03      0.2434536755E-02

    ------------------------------------------------
       NWT REQUIRED            6 OUTER ITERATIONS 
       AND A TOTAL OF         11 INNER ITERATIONS.
    ------------------------------------------------

 NO OUTPUT CONTROL FOR STRESS PERIOD    9   TIME STEP   23
 
 SOLVING FOR HEAD 
                                                   Max.-Head-Change                         Max.-Flux-Residual
  Residual-Control   Outer-Iter.   Inner-Iter.     Column Row Layer    Maximum-Head-Change  Column Row Layer    Maximum-Flux-Residual          L2-NORM 
          0                 1           2             5    8     1       0.1228935719E+00       5    8    1         0.6668863637E+01      0.1676669659E+02
          0                 2           2             5    8     1      -0.1195396448E-01       5    8    1        -0.6668704292E+00      0.1678745281E+01
          0                 3           2             4    7     1      -0.6424859092E-02       4    7    1        -0.3449051732E+00      0.8362849774E+00
          0                 4           2             4    7     1       0.7350164312E-02       4    7    1         0.4054689240E+00      0.9921868296E+00
          0                 5           2             4    7     1      -0.2887566053E-03       4    7    1        -0.1637368379E-01      0.4007495839E-01
          0                 6           1             4    7     1       0.3563137113E-05       4    7    1         0.2076653111E-03      0.5085243091E-03

    ------------------------------------------------
       NWT REQUIRED            6 OUTER ITERATIONS 
       AND A TOTAL OF         11 INNER ITERATIONS.
    ------------------------------------------------

 NO OUTPUT CONTROL FOR STRESS PERIOD    9   TIME STEP   24
 
 SOLVING FOR HEAD 
                                                   Max.-Head-Change                         Max.-Flux-Residual
  Residual-Control   Outer-Iter.   Inner-Iter.     Column Row Layer    Maximum-Head-Change  Column Row Layer    Maximum-Flux-Residual          L2-NORM 
          0                 1           2             5    6     1       0.1179657419E+00       5    8    1         0.6386179080E+01      0.1624603915E+02
          0                 2           2             4    7     1      -0.1539650567E+00       5    8    1        -0.8376846377E+01      0.2043779713E+02
          0                 3           2             4    7     1       0.5591886731E-01       5    8    1         0.3092694152E+01      0.7568486404E+01
          0                 4           2             4    7     1      -0.2225081672E-02       5    6    1        -0.1264658737E+00      0.3095301787E+00
          0                 5           1             4    7     1       0.2743619341E-04       5    6    1         0.1601007252E-02      0.3926689953E-02

    ------------------------------------------------
       NWT REQUIRED            5 OUTER ITERATIONS 
       AND A TOTAL OF          9 INNER ITERATIONS.
    ------------------------------------------------

 NO OUTPUT CONTROL FOR STRESS PERIOD    9   TIME STEP   25
 
 SOLVING FOR HEAD 
                                                   Max.-Head-Change                         Max.-Flux-Residual
  Residual-Control   Outer-Iter.   Inner-Iter.     Column Row Layer    Maximum-Head-Change  Column Row Layer    Maximum-Flux-Residual          L2-NORM 
          0                 1           2             5    6     1       0.1160823196E+00       5    6    1         0.6277685934E+01      0.1604909214E+02
          0                 2           2             5    7     1      -0.1025264601E+00       5    6    1        -0.5603111180E+01      0.1366902020E+02
          0                 3           2             4    7     1      -0.1685063284E+00       4    7    1        -0.9042554949E+01      0.2213879908E+02
          0                 4           2             4    7     1       0.1147611536E-01       4    7    1         0.6330706837E+00      0.1550119971E+01
          0                 5           2             4    7     1      -0.4567544208E-03       4    7    1        -0.2589930989E-01      0.6342671125E-01
          0                 6           1             4    7     1       0.5636160219E-05       4    7    1         0.3284737811E-03      0.8045915640E-03

    ------------------------------------------------
       NWT REQUIRED            6 OUTER ITERATIONS 
       AND A TOTAL OF         11 INNER ITERATIONS.
    ------------------------------------------------

 NO OUTPUT CONTROL FOR STRESS PERIOD    9   TIME STEP   26
 
 SOLVING FOR HEAD 
                                                   Max.-Head-Change                         Max.-Flux-Residual
  Residual-Control   Outer-Iter.   Inner-Iter.     Column Row Layer    Maximum-Head-Change  Column Row Layer    Maximum-Flux-Residual          L2-NORM 
          0                 1           2             5    6     1       0.1189995783E+00       5    8    1         0.6447069723E+01      0.1637674716E+02
          0                 2           2             5    6     1      -0.1296986474E-01       5    8    1        -0.7213588967E+00      0.1810657079E+01
          0                 3           2             4    7     1      -0.2619777227E-01       4    7    1        -0.1405926883E+01      0.3450983720E+01
          0                 4           2             4    7     1       0.2737620849E-01       4    7    1         0.1510154682E+01      0.3698300867E+01
          0                 5           2             4   13     1      -0.1239146865E-03       4   13    1        -0.7290757732E-02      0.1337870799E-01
          0                 6           2             4    7     1      -0.3051471473E-03       5    6    1        -0.1730180097E-01      0.4528480206E-01
          0                 7           2             4    7     1      -0.5179203960E-02       4    7    1        -0.2936563943E+00      0.7243569770E+00
          0                 8           2             4    7     1       0.5329594221E-02       5    8    1         0.3105845764E+00      0.7610007164E+00
          0                 9           2             4    7     1      -0.1214444452E-01       5    8    1        -0.7273232656E+00      0.1791585434E+01
          0                10           2             4    7     1       0.1104848810E-01       5    8    1         0.6799633405E+00      0.1665577319E+01
                                                   Max.-Head-Change                         Max.-Flux-Residual
  Residual-Control   Outer-Iter.   Inner-Iter.     Column Row Layer    Maximum-Head-Change  Column Row Layer    Maximum-Flux-Residual          L2-NORM 
          0                11           2             4    7     1      -0.2690821936E-03       5    8    1        -0.1702296632E-01      0.4169556187E-01
          0                12           2             4    7     1      -0.1214548052E-01       5    8    1        -0.7680304701E+00      0.1881282075E+01
          0                13           2             4    7     1      -0.1117166164E-02       4    7    1        -0.7064347460E-01      0.1730318191E+00
          0                14           2             4    7     1      -0.1027479751E-03       4    7    1        -0.6497066875E-02      0.1591309187E-01
          0                15           1             4    7     1      -0.9448905893E-05       4    7    1        -0.5974670264E-03      0.1463349700E-02

    ------------------------------------------------
       NWT REQUIRED           15 OUTER ITERATIONS 
       AND A TOTAL OF         29 INNER ITERATIONS.
    ------------------------------------------------

 NO OUTPUT CONTROL FOR STRESS PERIOD    9   TIME STEP   27
 
 SOLVING FOR HEAD 
                                                   Max.-Head-Change                         Max.-Flux-Residual
  Residual-Control   Outer-Iter.   Inner-Iter.     Column Row Layer    Maximum-Head-Change  Column Row Layer    Maximum-Flux-Residual          L2-NORM 
          0                 1           2             5    6     1       0.1148752120E+00       5    6    1         0.6210007882E+01      0.1593546699E+02
          0                 2           2             5    7     1      -0.6716497803E-01       5    6    1        -0.3680461937E+01      0.8990358658E+01
          0                 3           2             5    7     1       0.4428980069E-02       5    6    1         0.2495676607E+00      0.6117177091E+00
          0                 4           2             4    7     1      -0.1447050927E-02       5    6    1        -0.8231083404E-01      0.2014261377E+00
          0                 5           2             4    7     1      -0.1296601807E-01       4    7    1        -0.7351750968E+00      0.1800799471E+01
          0                 6           2             4    7     1      -0.1209141843E-02       5    8    1        -0.6856754357E-01      0.1679458720E+00
          0                 7           2             4    7     1      -0.1374488455E-02       5    8    1        -0.7793264581E-01      0.1908945855E+00
          0                 8           2             4    7     1      -0.1384933280E-02       5    8    1        -0.7852458039E-01      0.1923439685E+00
          0                 9           2             4    7     1      -0.1354264941E-01       5    8    1        -0.7678406484E+00      0.1880816604E+01
          0                10           2             4    7     1       0.1676444351E-03       4    7    1         0.9770011550E-02      0.2393178360E-01
          0                11           1             4    7     1       0.2457455005E-05       5    8    1         0.1434569253E-03      0.3517431487E-03

    ------------------------------------------------
       NWT REQUIRED           11 OUTER ITERATIONS 
       AND A TOTAL OF         21 INNER ITERATIONS.
    ------------------------------------------------

 NO OUTPUT CONTROL FOR STRESS PERIOD    9   TIME STEP   28
 
 SOLVING FOR HEAD 
                                                   Max.-Head-Change                         Max.-Flux-Residual
  Residual-Control   Outer-Iter.   Inner-Iter.     Column Row Layer    Maximum-Head-Change  Column Row Layer    Maximum-Flux-Residual          L2-NORM 
          0                 1           2             5    6     1       0.1130137487E+00       5    6    1         0.6107186226E+01      0.1573755522E+02
          0                 2           2             5    7     1      -0.6949999266E-01       5    6    1        -0.3801426130E+01      0.9294163497E+01
          0                 3           2             4    7     1      -0.5087550391E+00       4    7    1        -0.2730101007E+02      0.6686492996E+02
          0                 4           2             4    7     1       0.3464774075E-01       4    7    1         0.1911279301E+01      0.4681627038E+01
          0                 5           2             4    7     1      -0.1378999916E-02       5    8    1        -0.7820465572E-01      0.1915582928E+00
          0                 6           1             4    7     1       0.1701627936E-04       5    8    1         0.9920165371E-03      0.2429946041E-02

    ------------------------------------------------
       NWT REQUIRED            6 OUTER ITERATIONS 
       AND A TOTAL OF         11 INNER ITERATIONS.
    ------------------------------------------------

 NO OUTPUT CONTROL FOR STRESS PERIOD    9   TIME STEP   29
 
 SOLVING FOR HEAD 
                                                   Max.-Head-Change                         Max.-Flux-Residual
  Residual-Control   Outer-Iter.   Inner-Iter.     Column Row Layer    Maximum-Head-Change  Column Row Layer    Maximum-Flux-Residual          L2-NORM 
          0                 1           2             5    8     1       0.1247715212E+00       5    8    1         0.6768171475E+01      0.1699707827E+02
          0                 2           2             5    8     1      -0.1213663947E-01       5    8    1        -0.6768013207E+00      0.1701770312E+01
          0                 3           2             4    7     1      -0.6323436551E-02       4    7    1        -0.3394390463E+00      0.8239817324E+00
          0                 4           2             4    7     1       0.7267644910E-02       4    7    1         0.4009105483E+00      0.9810988768E+00
          0                 5           2             4    7     1      -0.2854217890E-03       4    7    1        -0.1618433413E-01      0.3961419513E-01
          0                 6           1             4    7     1       0.3521986514E-05       4    7    1         0.2052638072E-03      0.5025948249E-03

    ------------------------------------------------
       NWT REQUIRED            6 OUTER ITERATIONS 
       AND A TOTAL OF         11 INNER ITERATIONS.
    ------------------------------------------------

 NO OUTPUT CONTROL FOR STRESS PERIOD    9   TIME STEP   30



 STREAM LISTING     PERIOD      9   STEP       30

 LAYER ROW COL. STREAM  RCH.  FLOW INTO     FLOW TO   FLOW OUT OF   OVRLND.     DIRECT     STREAM       STREAM     STREAM     STREAM   STREAMBED  STREAMBED
                SEG.NO.  NO.  STRM. RCH.    AQUIFER    STRM. RCH.    RUNOFF     PRECIP       ET          HEAD       DEPTH      WIDTH   CONDCTNC.   GRADIENT

   1    1    1     1     1    2.2875E+01  2.3514E-01   2.2640E+01  0.000E+00  0.000E+00  0.000E+00  1.09419E+03  1.146E+00  1.260E+01  5.672E-02  1.382E+00
   1    2    2     1     2    2.2640E+01  3.6351E-01   2.2276E+01  0.000E+00  0.000E+00  0.000E+00  1.08920E+03  1.141E+00  1.254E+01  8.778E-02  1.380E+00
   1    3    3     1     3    2.2276E+01  3.0939E-01   2.1967E+01  0.000E+00  0.000E+00  0.000E+00  1.08355E+03  1.136E+00  1.247E+01  7.481E-02  1.379E+00
   1    3    4     1     4    2.1967E+01  2.8439E-01   2.1682E+01  0.000E+00  0.000E+00  0.000E+00  1.07854E+03  1.131E+00  1.240E+01  6.885E-02  1.377E+00
   1    4    5     2     1    1.9682E+01  3.1521E-01   1.9367E+01  0.000E+00  0.000E+00  0.000E+00  1.07298E+03  1.041E+00  1.200E+01  7.800E-02  1.347E+00
   1    5    6     2     2    1.9367E+01  2.4193E-01   1.9125E+01  0.000E+00  0.000E+00  0.000E+00  1.06754E+03  1.032E+00  1.200E+01  6.000E-02  1.344E+00
   1    6    6     2     3    1.9125E+01  2.4146E-01   1.8884E+01  0.000E+00  0.000E+00  0.000E+00  1.06282E+03  1.024E+00  1.200E+01  6.000E-02  1.341E+00
   1    7    6     2     4    1.8884E+01  2.4099E-01   1.8643E+01  0.000E+00  0.000E+00  0.000E+00  1.05809E+03  1.017E+00  1.200E+01  6.000E-02  1.339E+00
   1    8    6     2     5    1.8643E+01  2.4052E-01   1.8402E+01  0.000E+00  0.000E+00  0.000E+00  1.05337E+03  1.009E+00  1.200E+01  6.000E-02  1.336E+00
   1    3    5     3     1    2.0000E+00  2.8252E-01   1.7175E+00  0.000E+00  0.000E+00  0.000E+00  1.07555E+03  1.909E+00  9.636E+00  7.227E-02  1.955E+00
   1    3    6     3     2    1.7175E+00  2.4905E-01   1.4684E+00  0.000E+00  0.000E+00  0.000E+00  1.07264E+03  1.727E+00  8.909E+00  6.682E-02  1.864E+00
   1    3    7     3     3    1.4684E+00  1.9718E-01   1.2712E+00  0.000E+00  0.000E+00  0.000E+00  1.06987E+03  1.555E+00  8.218E+00  5.547E-02  1.777E+00
   1    4    8     3     4    1.2712E+00  2.2567E-01   1.0456E+00  0.000E+00  0.000E+00  0.000E+00  1.06682E+03  1.364E+00  7.455E+00  6.709E-02  1.682E+00
   1    5    8     3     5    1.0456E+00  1.5790E-01   8.8768E-01  0.000E+00  0.000E+00  0.000E+00  1.06362E+03  1.164E+00  6.655E+00  4.991E-02  1.582E+00
   1    6    8     3     6    8.8768E-01  5.5980E-02   8.3170E-01  0.000E+00  0.000E+00  0.000E+00  1.06158E+03  1.036E+00  6.145E+00  1.844E-02  1.518E+00
   1    5   10     4     1    1.0000E+01  9.0919E-02   9.9091E+00  0.000E+00  0.000E+00  0.000E+00  1.07836E+03  6.368E-01  1.000E+01  2.500E-02  1.212E+00
   1    5    9     4     2    9.9091E+00  1.8158E-01   9.7275E+00  0.000E+00  0.000E+00  0.000E+00  1.07154E+03  6.315E-01  1.000E+01  5.000E-02  1.211E+00
   1    6    8     4     3    9.7275E+00  1.2689E-01   9.6006E+00  0.000E+00  0.000E+00  0.000E+00  1.06381E+03  6.256E-01  1.000E+01  3.500E-02  1.209E+00
   1    6    8     5     1    1.0432E+01  2.2686E-01   1.0205E+01  0.000E+00  0.000E+00  0.000E+00  1.05868E+03  6.790E-01  1.542E+01  6.166E-02  1.226E+00
   1    7    7     5     2    1.0205E+01  2.7894E-01   9.9265E+00  0.000E+00  0.000E+00  0.000E+00  1.05417E+03  6.732E-01  1.519E+01  7.594E-02  1.224E+00
   1    8    7     5     3    9.9265E+00  1.9221E-01   9.7343E+00  0.000E+00  0.000E+00  0.000E+00  1.04992E+03  6.676E-01  1.497E+01  5.241E-02  1.223E+00
   1    8    6     5     4    9.7343E+00  1.3577E-01   9.5985E+00  0.000E+00  0.000E+00  0.000E+00  1.04691E+03  6.637E-01  1.482E+01  3.706E-02  1.221E+00
   1    9    6     6     1    2.5735E+01  2.5433E-01   2.5481E+01  0.000E+00  0.000E+00  0.000E+00  1.04397E+03  1.239E+00  1.200E+01  6.000E-02  1.413E+00
   1   10    7     6     2    2.5481E+01  2.5388E-01   2.5227E+01  0.000E+00  0.000E+00  0.000E+00  1.03941E+03  1.231E+00  1.200E+01  6.000E-02  1.410E+00
   1   11    7     6     3    2.5227E+01  2.5344E-01   2.4974E+01  0.000E+00  0.000E+00  0.000E+00  1.03486E+03  1.224E+00  1.200E+01  6.000E-02  1.408E+00
   1   12    7     6     4    2.4974E+01  2.5299E-01   2.4721E+01  0.000E+00  0.000E+00  0.000E+00  1.03031E+03  1.217E+00  1.200E+01  6.000E-02  1.406E+00
   1   13    7     6     5    2.4721E+01  6.9608E-03   2.4714E+01  0.000E+00  0.000E+00  0.000E+00  1.02712E+03  1.213E+00  1.200E+01  2.400E-02  9.668E-02
   1   14    9     7     1    1.5000E+02  1.3685E+00   1.4863E+02  0.000E+00  0.000E+00  0.000E+00  1.03987E+03  2.288E+00  5.529E+01  5.593E-01  8.156E-01
   1   13    8     7     2    1.4863E+02  1.9181E+00   1.4671E+02  0.000E+00  0.000E+00  0.000E+00  1.03478E+03  2.279E+00  5.526E+01  6.148E-01  1.040E+00
   1   13    7     7     3    1.4671E+02  1.5954E+00   1.4512E+02  0.000E+00  0.000E+00  0.000E+00  1.02969E+03  2.270E+00  5.521E+01  5.584E-01  9.524E-01
   1   13    6     8     1    1.6983E+02  1.0264E+00   1.6881E+02  0.000E+00  0.000E+00  0.000E+00  1.02482E+03  2.948E+00  4.274E+01  4.356E-01  7.855E-01
   1   13    5     8     2    1.6881E+02  2.6086E-01   1.6854E+02  0.000E+00  0.000E+00  0.000E+00  1.01857E+03  2.944E+00  4.268E+01  4.349E-01  1.999E-01
   1   13    4     8     3    1.6854E+02 -1.9857E+00   1.7053E+02  0.000E+00  0.000E+00  0.000E+00  1.01232E+03  2.949E+00  4.276E+01  4.358E+00 -1.519E-01
   1   13    3     8     4    1.7053E+02 -3.3013E+00   1.7383E+02  0.000E+00  0.000E+00  0.000E+00  1.00609E+03  2.966E+00  4.301E+01  4.383E+00 -2.511E-01
   1   13    2     8     5    1.7383E+02 -2.2632E+00   1.7609E+02  0.000E+00  0.000E+00  0.000E+00  9.99859E+02  2.984E+00  4.327E+01  4.410E+00 -1.711E-01
   1   13    1     8     6    1.7609E+02 -1.8080E+00   1.7790E+02  0.000E+00  0.000E+00  0.000E+00  9.94872E+02  2.997E+00  4.346E+01  2.657E+00 -2.268E-01
   1    8    6     9     1    2.2655E+00  0.0000E+00   2.2655E+00  0.000E+00  0.000E+00  0.000E+00  1.07968E+03  9.297E-01  4.000E+00  0.000E+00  1.310E+00
   1    8    5     9     2    2.2655E+00  0.0000E+00   2.2655E+00  0.000E+00  0.000E+00  0.000E+00  1.07918E+03  9.297E-01  4.000E+00  0.000E+00  1.310E+00





UNSATURATED ZONE PACKAGE VOLUMETRIC BUDGET FOR  TIME STEP    30 STRESS PERIOD    9
  ------------------------------------------------------------------------------



     CUMULATIVE VOLUMES      L**3       RATES FOR THIS TIME STEP      L**3/T
     ------------------                 ------------------------

           IN:                                      IN:
           ---                                      ---
        INFILTRATION =   613398413.8308          INFILTRATION =           3.1130

          OUT:                                     OUT:
          ----                                     ----
              UZF ET =   392202844.2614                UZF ET =          49.5682
        UZF RECHARGE =       73224.0000          UZF RECHARGE =       0.0000E+00

            IN - OUT =   221122345.5694              IN - OUT =         -46.4552

          STORAGE:                                 STORAGE:
          --------                                 --------
      STORAGE CHANGE =   221122554.6160        STORAGE CHANGE =         -46.4552

 PERCENT DISCREPANCY IS DIFFERENCE BETWEEN IN-OUT MINUS CHANGE IN STORAGE
 DIVIDED BY THE AVERAGE OF IN AND OUT TIMES 100

 PERCENT DISCREPANCY =          -0.00     PERCENT DISCREPANCY =          -0.00






1
  VOLUMETRIC BUDGET FOR AGRICULTURAL FIELDS AT  END OF TIME STEP   30, STRESS PERIOD   9
  ------------------------------------------------------------------------------

     CUMULATIVE VOLUMES      L**3       RATES FOR THIS TIME STEP      L**3/T
     ------------------                 ------------------------

           IN:                                      IN:
           ---                                      ---
               AG WELLS  =   405507104.0000                 AG WELLS  =           0.0000
      DIVERSION SEGMENTS =   190026272.0000        DIVERSION SEGMENTS =           2.2655
       IRRIGATION PONDS  =           0.0000         IRRIGATION PONDS  =           0.0000
           GW IRRIGATION =           0.0000             GW IRRIGATION =           0.0000
           SW IRRIGATION =           0.0000             SW IRRIGATION =           0.0000
        SYSTEM LOSSES GW =           0.0000          SYSTEM LOSSES GW =           0.0000
        SYSTEM LOSSES SW =           0.0000          SYSTEM LOSSES SW =           0.0000

                TOTAL IN =   595533376.0000                  TOTAL IN =           2.2655

          OUT:                                     OUT:
          ----                                     ----
               AG WELLS  =           0.0000                 AG WELLS  =           0.0000
      DIVERSION SEGMENTS =           0.0000        DIVERSION SEGMENTS =           0.0000
       IRRIGATION PONDS  =           0.0000         IRRIGATION PONDS  =           0.0000
           GW IRRIGATION =   405507104.0000             GW IRRIGATION =           0.0000
           SW IRRIGATION =   190029984.0000             SW IRRIGATION =           2.2655
        SYSTEM LOSSES GW =           0.0000          SYSTEM LOSSES GW =           0.0000
        SYSTEM LOSSES SW =           0.0000          SYSTEM LOSSES SW =           0.0000

               TOTAL OUT =   595537088.0000                 TOTAL OUT =           2.2655

                IN - OUT =       -3712.0000                  IN - OUT =      -4.5300E-05

     PERCENT DISCREPANCY =          -0.00         PERCENT DISCREPANCY =          -0.00



1
  VOLUMETRIC BUDGET FOR ENTIRE MODEL AT END OF TIME STEP   30, STRESS PERIOD   9
  ------------------------------------------------------------------------------

     CUMULATIVE VOLUMES      L**3       RATES FOR THIS TIME STEP      L**3/T
     ------------------                 ------------------------

           IN:                                      IN:
           ---                                      ---
             STORAGE     =   466980896.0000               STORAGE     =          35.2584
       CONSTANT HEAD     =           0.0000         CONSTANT HEAD     =           0.0000
     HEAD DEP BOUNDS     =     6082178.0000       HEAD DEP BOUNDS     =           0.2880
      STREAM LEAKAGE     =   250503696.0000        STREAM LEAKAGE     =          12.0649
        UZF RECHARGE     =       73223.9531          UZF RECHARGE     =           0.0000
               GW ET     =           0.0000                 GW ET     =           0.0000
     SURFACE LEAKAGE     =           0.0000       SURFACE LEAKAGE     =           0.0000
           AG WELLS      =           0.0000             AG WELLS      =           0.0000

                TOTAL IN =   723640000.0000                  TOTAL IN =          47.6112

          OUT:                                     OUT:
          ----                                     ----
             STORAGE     =    93379224.0000               STORAGE     =          37.9660
       CONSTANT HEAD     =           0.0000         CONSTANT HEAD     =           0.0000
     HEAD DEP BOUNDS     =     6088885.5000       HEAD DEP BOUNDS     =           0.2870
      STREAM LEAKAGE     =   218667392.0000        STREAM LEAKAGE     =           9.3582
        UZF RECHARGE     =           0.0000          UZF RECHARGE     =           0.0000
               GW ET     =           0.0000                 GW ET     =           0.0000
     SURFACE LEAKAGE     =           0.0000       SURFACE LEAKAGE     =           0.0000
           AG WELLS      =   405507104.0000             AG WELLS      =           0.0000

               TOTAL OUT =   723642624.0000                 TOTAL OUT =          47.6112

                IN - OUT =       -2624.0000                  IN - OUT =       1.9073E-05

     PERCENT DISCREPANCY =          -0.00         PERCENT DISCREPANCY =           0.00






         TIME SUMMARY AT END OF TIME STEP   30 IN STRESS PERIOD    9
                    SECONDS     MINUTES      HOURS       DAYS        YEARS
                    -----------------------------------------------------------
   TIME STEP LENGTH  87667.      1461.1      24.352      1.0147     2.77799E-03
 STRESS PERIOD TIME 2.63000E+06  43833.      730.56      30.440     8.33397E-02
         TOTAL TIME 2.11264E+07 3.52107E+05  5868.4      244.52     0.66945    
1
1
                            STRESS PERIOD NO.   10, LENGTH =   2630000.    
                            -----------------------------------------------

                              NUMBER OF TIME STEPS =    30

                               MULTIPLIER FOR DELT =     1.000

                            INITIAL TIME STEP SIZE =   87666.66    

 REUSING NON-PARAMETER GHB CELLS FROM LAST STRESS PERIOD

      2 GHB CELLS

 REUSING STREAM SEGMENT DATA FROM LAST STRESS PERIOD



            AREAL INFILTRATION RATE
 READING ON UNIT   19 WITH FORMAT: (FREE)              

            1           2           3           4           5           6           7           8           9          10
 ........................................................................................................................
   1   1.0000E-10  2.0000E-10   0.000       0.000       0.000       0.000       0.000       0.000       0.000       0.000    
   2   2.0000E-10  1.0000E-10  2.0000E-10   0.000       0.000      8.0000E-10  8.0000E-10  5.0000E-10   0.000       0.000    
   3    0.000      5.0000E-10  1.0000E-10  1.0000E-10  8.0000E-10  8.0000E-10  5.0000E-10  5.0000E-10   0.000       0.000    
   4   8.0000E-10  5.0000E-10  1.0000E-10  1.0000E-10  1.0000E-10  1.0000E-10  1.0000E-10  1.0000E-10  2.0000E-10   0.000    
   5   8.0000E-10  5.0000E-10  1.0000E-10  1.0000E-10  1.0000E-10  1.0000E-10  1.0000E-10  1.0000E-10  1.0000E-10  1.0000E-10
   6   8.0000E-10  5.0000E-10  5.0000E-10  2.0000E-10  2.0000E-10  1.0000E-10  1.0000E-10  1.0000E-10  1.0000E-10  5.0000E-10
   7   8.0000E-10  5.0000E-10  5.0000E-10  2.0000E-10  2.0000E-10  1.0000E-10  1.0000E-10  2.0000E-10  2.0000E-10   0.000    
   8    0.000      5.0000E-10  5.0000E-10  2.0000E-10  2.0000E-10  1.0000E-10  1.0000E-10  2.0000E-10  5.0000E-10   0.000    
   9    0.000      5.0000E-10  5.0000E-10  2.0000E-10  2.0000E-10  1.0000E-10  1.0000E-10  2.0000E-10  5.0000E-10   0.000    
  10    0.000      5.0000E-10  5.0000E-10  2.0000E-10  2.0000E-10  1.0000E-10  1.0000E-10  2.0000E-10  5.0000E-10  8.0000E-10
  11    0.000      1.0000E-10  1.0000E-10  1.0000E-10  1.0000E-10  1.0000E-10  1.0000E-10  2.0000E-10  5.0000E-10   0.000    
  12   1.0000E-10  1.0000E-10  1.0000E-10  1.0000E-10  1.0000E-10  1.0000E-10  1.0000E-10  1.0000E-10  2.0000E-10   0.000    
  13   1.0000E-10  1.0000E-10  2.0000E-10  2.0000E-10  2.0000E-10  2.0000E-10  2.0000E-10  1.0000E-10  1.0000E-10   0.000    
  14    0.000      2.0000E-10  5.0000E-10  5.0000E-10  5.0000E-10  5.0000E-10  5.0000E-10  2.0000E-10  1.0000E-10   0.000    
  15    0.000       0.000      8.0000E-10  8.0000E-10  8.0000E-10  8.0000E-10   0.000       0.000       0.000       0.000    

                  ET RATE =  7.500000E-08

 USING ET EXTINCTION DEPTH FROM PREVIOUS STRESS PERIOD. CURRENT PERIOD IS:      10

 USING EXTINCTION WATER CONTENT FROM PREVIOUS STRESS PERIOD. CURRENT PERIOD IS:      10

 USING AIR ENTRY PRESSURE FROM PREVIOUS STRESS PERIOD. CURRENT PERIOD IS:      10

 USING ROOT PRESSURE HEAD FROM PREVIOUS STRESS PERIOD. CURRENT PERIOD IS:      10

 USING ROOT ACTIVITY FROM PREVIOUS STRESS PERIOD. CURRENT PERIOD IS:      10

 PROCESSING AG STRESS PERIOD DATA

 READING AG STRESS PERIOD DATA

 READING IRRIGATION SEGMENT

 READING IRRIGATION WELL

 READING SUPPLEMENTAL WELL

 NO IRRPOND OR REUSING IRRPOND DATA FROM LAST STRESS PERIOD

 END PROCESSING AG STRESS PERIOD DATA OPTIONS
 
 SOLVING FOR HEAD 
                                                   Max.-Head-Change                         Max.-Flux-Residual
  Residual-Control   Outer-Iter.   Inner-Iter.     Column Row Layer    Maximum-Head-Change  Column Row Layer    Maximum-Flux-Residual          L2-NORM 
          0                 1           2             5    8     1       0.1196339377E+00       5    8    1         0.6483756841E+01      0.1647107917E+02
          0                 2           2             5    6     1      -0.3878604905E-01       5    8    1        -0.2140774529E+01      0.5195818370E+01
          0                 3           2             4    7     1       0.2173643821E-01       5    8    1         0.1206495640E+01      0.2948508579E+01
          0                 4           2             4    7     1      -0.8649157391E-03       5    8    1        -0.4934213011E-01      0.1205895414E+00
          0                 5           1             4    7     1       0.1066478220E-04       5    6    1         0.6251112136E-03      0.1528017942E-02

    ------------------------------------------------
       NWT REQUIRED            5 OUTER ITERATIONS 
       AND A TOTAL OF          9 INNER ITERATIONS.
    ------------------------------------------------

 NO OUTPUT CONTROL FOR STRESS PERIOD   10   TIME STEP    1
 
 SOLVING FOR HEAD 
                                                   Max.-Head-Change                         Max.-Flux-Residual
  Residual-Control   Outer-Iter.   Inner-Iter.     Column Row Layer    Maximum-Head-Change  Column Row Layer    Maximum-Flux-Residual          L2-NORM 
          0                 1           2             5    6     1       0.1152791327E+00       5    8    1         0.6229755112E+01      0.1601545281E+02
          0                 2           2             5    6     1      -0.1121330850E-01       5    8    1        -0.6229613904E+00      0.1602307210E+01
          0                 3           2             4    7     1      -0.6237470898E-02       4    7    1        -0.3347601696E+00      0.8172105702E+00
          0                 4           2             4    7     1       0.6519824089E-02       4    7    1         0.3596537972E+00      0.8803746052E+00
          0                 5           2             4    7     1       0.1971808459E-03       5    6    1         0.1088826181E-01      0.2676721532E-01
          0                 6           2             4    7     1      -0.9675473503E-03       5    8    1        -0.5485990362E-01      0.1352559943E+00
          0                 7           2             4    7     1      -0.1097392957E-02       4    7    1        -0.6222066253E-01      0.1552361718E+00
          0                 8           2             4    7     1       0.1942941062E-02       5    8    1         0.1132242845E+00      0.2773463484E+00
          0                 9           2             4    7     1      -0.2687885656E-02       5    8    1        -0.1609750204E+00      0.3965690878E+00
          0                10           2             4    7     1       0.2492626516E-02       5    8    1         0.1534037790E+00      0.3757620116E+00
                                                   Max.-Head-Change                         Max.-Flux-Residual
  Residual-Control   Outer-Iter.   Inner-Iter.     Column Row Layer    Maximum-Head-Change  Column Row Layer    Maximum-Flux-Residual          L2-NORM 
          0                11           2             4    7     1       0.1676708117E-03       4    7    1         0.1031860285E-01      0.2562407409E-01
          0                12           1             4   13     1      -0.4074150814E-04       4   13    1        -0.2396997445E-02      0.4194650976E-02

    ------------------------------------------------
       NWT REQUIRED           12 OUTER ITERATIONS 
       AND A TOTAL OF         23 INNER ITERATIONS.
    ------------------------------------------------

 NO OUTPUT CONTROL FOR STRESS PERIOD   10   TIME STEP    2
 
 SOLVING FOR HEAD 
                                                   Max.-Head-Change                         Max.-Flux-Residual
  Residual-Control   Outer-Iter.   Inner-Iter.     Column Row Layer    Maximum-Head-Change  Column Row Layer    Maximum-Flux-Residual          L2-NORM 
          0                 1           2             5    6     1       0.1109563725E+00       5    6    1         0.5991655219E+01      0.1555149291E+02
          0                 2           2             5    6     1      -0.1989810556E-01       5    6    1        -0.1099675273E+01      0.2720837540E+01
          0                 3           2             4    7     1      -0.5025608181E-02       4    7    1        -0.2696991440E+00      0.6826099886E+00
          0                 4           2             4    7     1       0.1518560789E-01       4    7    1         0.8376747341E+00      0.2051505268E+01
          0                 5           2             4    7     1      -0.3467588272E-02       4    7    1        -0.1966125125E+00      0.4836823666E+00
          0                 6           2             4   13     1      -0.4016719131E-03       4   13    1        -0.2495142670E-01      0.4469547705E-01
          0                 7           2             4   13     1      -0.3893235209E-03       4   13    1        -0.2418015471E-01      0.4479338160E-01
          0                 8           2             4    7     1       0.3103217324E-02       4    7    1         0.1808374593E+00      0.4429601909E+00
          0                 9           1             4    7     1       0.4555202093E-04       4    7    1         0.2654299797E-02      0.6501814090E-02

    ------------------------------------------------
       NWT REQUIRED            9 OUTER ITERATIONS 
       AND A TOTAL OF         17 INNER ITERATIONS.
    ------------------------------------------------

 NO OUTPUT CONTROL FOR STRESS PERIOD   10   TIME STEP    3
 
 SOLVING FOR HEAD 
                                                   Max.-Head-Change                         Max.-Flux-Residual
  Residual-Control   Outer-Iter.   Inner-Iter.     Column Row Layer    Maximum-Head-Change  Column Row Layer    Maximum-Flux-Residual          L2-NORM 
          0                 1           2             5    7     1       0.1069521123E+00       5    6    1         0.5766481856E+01      0.1511146659E+02
          0                 2           2             5    7     1      -0.1040343402E-01       5    6    1        -0.5766358173E+00      0.1511956830E+01
          0                 3           2             4    7     1      -0.2470548107E-01       4    7    1        -0.1325731749E+01      0.3259163845E+01
          0                 4           2             4    7     1       0.2572735787E-01       4    7    1         0.1419179073E+01      0.3476048808E+01
          0                 5           2             4    7     1      -0.6695957919E-03       5    8    1        -0.3797781701E-01      0.9313160873E-01
          0                 6           2             4    7     1      -0.4376583491E-03       4    7    1        -0.2481484625E-01      0.6161145545E-01
          0                 7           2             4    7     1      -0.2364944109E-02       4    7    1        -0.1340890304E+00      0.3311626026E+00
          0                 8           2             4    7     1       0.2743504400E-02       5    8    1         0.1598772975E+00      0.3916360605E+00
          0                 9           2             4    7     1      -0.2774568455E-02       5    8    1        -0.1661667141E+00      0.4094847968E+00
          0                10           2             4    7     1       0.2923934866E-02       5    8    1         0.1799473393E+00      0.4407773550E+00
                                                   Max.-Head-Change                         Max.-Flux-Residual
  Residual-Control   Outer-Iter.   Inner-Iter.     Column Row Layer    Maximum-Head-Change  Column Row Layer    Maximum-Flux-Residual          L2-NORM 
          0                11           2             4    7     1       0.1959112009E-03       4    7    1         0.1205652636E-01      0.2953052349E-01
          0                12           1             4    7     1       0.1312442874E-04       4    7    1         0.8076636600E-03      0.1978282192E-02

    ------------------------------------------------
       NWT REQUIRED           12 OUTER ITERATIONS 
       AND A TOTAL OF         23 INNER ITERATIONS.
    ------------------------------------------------

 NO OUTPUT CONTROL FOR STRESS PERIOD   10   TIME STEP    4
 
 SOLVING FOR HEAD 
                                                   Max.-Head-Change                         Max.-Flux-Residual
  Residual-Control   Outer-Iter.   Inner-Iter.     Column Row Layer    Maximum-Head-Change  Column Row Layer    Maximum-Flux-Residual          L2-NORM 
          0                 1           2             5    7     1       0.1047867625E+00       5    7    1         0.5558320300E+01      0.1469335623E+02
          0                 2           2             5    7     1      -0.1019282275E-01       5    7    1        -0.5558272834E+00      0.1470171328E+01
          0                 3           2             4    7     1      -0.2474158563E-01       4    7    1        -0.1327643369E+01      0.3265772251E+01
          0                 4           2             4    7     1       0.2578246750E-01       4    7    1         0.1422217090E+01      0.3483626569E+01
          0                 5           2             4    7     1      -0.6617085187E-03       5    8    1        -0.3753443923E-01      0.9202480626E-01
          0                 6           2             4    7     1      -0.2456297495E-02       4    7    1        -0.1392700153E+00      0.3431580621E+00
          0                 7           2             4    7     1       0.2404346439E-02       5    8    1         0.1401145696E+00      0.3432258591E+00
          0                 8           2             4    7     1      -0.2749473238E-02       5    8    1        -0.1646651583E+00      0.4057336828E+00
          0                 9           2             4    7     1       0.2562967965E-02       5    8    1         0.1577341675E+00      0.3863872243E+00
          0                10           2             4    7     1      -0.2499743816E-02       5    8    1        -0.1580769089E+00      0.3898082862E+00
                                                   Max.-Head-Change                         Max.-Flux-Residual
  Residual-Control   Outer-Iter.   Inner-Iter.     Column Row Layer    Maximum-Head-Change  Column Row Layer    Maximum-Flux-Residual          L2-NORM 
          0                11           2             4    7     1       0.2658223538E-02       5    8    1         0.1727091872E+00      0.4230478826E+00
          0                12           2             4    7     1       0.3089972310E-03       4    7    1         0.2007551234E-01      0.4917300122E-01
          0                13           1             4    7     1       0.3591508861E-04       4    7    1         0.2333351662E-02      0.5715114375E-02

    ------------------------------------------------
       NWT REQUIRED           13 OUTER ITERATIONS 
       AND A TOTAL OF         25 INNER ITERATIONS.
    ------------------------------------------------

 NO OUTPUT CONTROL FOR STRESS PERIOD   10   TIME STEP    5
 
 SOLVING FOR HEAD 
                                                   Max.-Head-Change                         Max.-Flux-Residual
  Residual-Control   Outer-Iter.   Inner-Iter.     Column Row Layer    Maximum-Head-Change  Column Row Layer    Maximum-Flux-Residual          L2-NORM 
          0                 1           2             5    7     1       0.1026600194E+00       5    7    1         0.5445794071E+01      0.1429598629E+02
          0                 2           2             5    7     1      -0.9985964411E-02       5    7    1        -0.5445757291E+00      0.1430460868E+01
          0                 3           2             4    7     1      -0.2475706161E-01       4    7    1        -0.1328450185E+01      0.3269515395E+01
          0                 4           2             4    7     1       0.2580625845E-01       5    8    1         0.1423545257E+01      0.3486962219E+01
          0                 5           2             4    7     1      -0.6823794108E-03       5    8    1        -0.3870996263E-01      0.9490241982E-01
          0                 6           2             4    7     1      -0.2702251319E-03       4    7    1        -0.1532152368E-01      0.3826823907E-01
          0                 7           2             4    7     1      -0.2536584614E-02       4    7    1        -0.1438208277E+00      0.3547894589E+00
          0                 8           2             4    7     1       0.2725640882E-02       5    8    1         0.1588364455E+00      0.3890865503E+00
          0                 9           2             4    7     1      -0.2735079383E-02       5    8    1        -0.1638017620E+00      0.4036659765E+00
          0                10           2             4    7     1       0.2886856221E-02       5    8    1         0.1776654184E+00      0.4351878464E+00
                                                   Max.-Head-Change                         Max.-Flux-Residual
  Residual-Control   Outer-Iter.   Inner-Iter.     Column Row Layer    Maximum-Head-Change  Column Row Layer    Maximum-Flux-Residual          L2-NORM 
          0                11           2             4    7     1       0.1934268692E-03       4    7    1         0.1190363950E-01      0.2915604743E-01
          0                12           1             4    7     1       0.1295799936E-04       4    7    1         0.7974218272E-03      0.1953084435E-02

    ------------------------------------------------
       NWT REQUIRED           12 OUTER ITERATIONS 
       AND A TOTAL OF         23 INNER ITERATIONS.
    ------------------------------------------------

 NO OUTPUT CONTROL FOR STRESS PERIOD   10   TIME STEP    6
 
 SOLVING FOR HEAD 
                                                   Max.-Head-Change                         Max.-Flux-Residual
  Residual-Control   Outer-Iter.   Inner-Iter.     Column Row Layer    Maximum-Head-Change  Column Row Layer    Maximum-Flux-Residual          L2-NORM 
          0                 1           2             4    7     1       0.1006162957E+00       5    7    1         0.5335262288E+01      0.1391774428E+02
          0                 2           2             4    7     1      -0.9787213904E-02       5    7    1        -0.5335234745E+00      0.1392661703E+01
          0                 3           2             4    7     1      -0.2479427353E-01       5    8    1        -0.1331486259E+01      0.3275993612E+01
          0                 4           2             4    7     1       0.2590891042E-01       5    8    1         0.1429286358E+01      0.3500947109E+01
          0                 5           2             4    7     1      -0.3620786813E-02       5    8    1        -0.2053201928E+00      0.5047530710E+00
          0                 6           2             4    7     1       0.2782329883E-02       5    8    1         0.1621437363E+00      0.3971863927E+00
          0                 7           1             4    7     1       0.4105311646E-04       4   13    1        -0.2491269791E-02      0.7331788976E-02

    ------------------------------------------------
       NWT REQUIRED            7 OUTER ITERATIONS 
       AND A TOTAL OF         13 INNER ITERATIONS.
    ------------------------------------------------

 NO OUTPUT CONTROL FOR STRESS PERIOD   10   TIME STEP    7
 
 SOLVING FOR HEAD 
                                                   Max.-Head-Change                         Max.-Flux-Residual
  Residual-Control   Outer-Iter.   Inner-Iter.     Column Row Layer    Maximum-Head-Change  Column Row Layer    Maximum-Flux-Residual          L2-NORM 
          0                 1           2             4    7     1       0.9986585875E-01       4    7    1         0.5227788413E+01      0.1355813369E+02
          0                 2           2             4    7     1      -0.1449156790E-01       4    7    1        -0.7791432759E+00      0.1951238996E+01
          0                 3           2             4    7     1      -0.2393721375E-01       5    8    1        -0.1286519933E+01      0.3170703469E+01
          0                 4           2             4    7     1       0.3055077076E-01       5    8    1         0.1685412552E+01      0.4128456841E+01
          0                 5           2             4    7     1      -0.1215937465E-02       5    8    1        -0.6897208756E-01      0.1689497488E+00
          0                 6           1             4    7     1       0.1500415816E-04       5    8    1         0.8750081913E-03      0.2146101155E-02

    ------------------------------------------------
       NWT REQUIRED            6 OUTER ITERATIONS 
       AND A TOTAL OF         11 INNER ITERATIONS.
    ------------------------------------------------

 NO OUTPUT CONTROL FOR STRESS PERIOD   10   TIME STEP    8
 
 SOLVING FOR HEAD 
                                                   Max.-Head-Change                         Max.-Flux-Residual
  Residual-Control   Outer-Iter.   Inner-Iter.     Column Row Layer    Maximum-Head-Change  Column Row Layer    Maximum-Flux-Residual          L2-NORM 
          0                 1           2             4    7     1       0.9906666980E-01       4    7    1         0.5188720110E+01      0.1321457885E+02
          0                 2           2             4    7     1      -0.9636504516E-02       4    7    1        -0.5188734619E+00      0.1322393318E+01
          0                 3           2             4    7     1      -0.3417236958E-01       5    8    1        -0.1836697464E+01      0.4517082479E+01
          0                 4           2             4    7     1       0.3622657705E-01       5    8    1         0.1998575933E+01      0.4895457801E+01
          0                 5           2             4    7     1      -0.1442909727E-02       5    8    1        -0.8184823052E-01      0.2004815157E+00
          0                 6           1             4    7     1       0.1884407328E-04       5    8    1         0.1098916487E-02      0.2693867318E-02

    ------------------------------------------------
       NWT REQUIRED            6 OUTER ITERATIONS 
       AND A TOTAL OF         11 INNER ITERATIONS.
    ------------------------------------------------

 NO OUTPUT CONTROL FOR STRESS PERIOD   10   TIME STEP    9
 
 SOLVING FOR HEAD 
                                                   Max.-Head-Change                         Max.-Flux-Residual
  Residual-Control   Outer-Iter.   Inner-Iter.     Column Row Layer    Maximum-Head-Change  Column Row Layer    Maximum-Flux-Residual          L2-NORM 
          0                 1           2             4    7     1       0.9822461699E-01       4    7    1         0.5147190495E+01      0.1288648569E+02
          0                 2           2             4    7     1      -0.9554607008E-02       4    7    1        -0.5147212491E+00      0.1289609105E+01
          0                 3           2             4    7     1      -0.3417807590E-01       5    8    1        -0.1837858323E+01      0.4519054220E+01
          0                 4           2             4    7     1       0.3622693974E-01       5    8    1         0.1998656457E+01      0.4895595511E+01
          0                 5           2             4    7     1      -0.1441853305E-02       5    8    1        -0.8179078057E-01      0.2003383731E+00
          0                 6           1             4    7     1       0.1779186293E-04       5    8    1         0.1037628441E-02      0.2543889863E-02

    ------------------------------------------------
       NWT REQUIRED            6 OUTER ITERATIONS 
       AND A TOTAL OF         11 INNER ITERATIONS.
    ------------------------------------------------

 NO OUTPUT CONTROL FOR STRESS PERIOD   10   TIME STEP   10
 
 SOLVING FOR HEAD 
                                                   Max.-Head-Change                         Max.-Flux-Residual
  Residual-Control   Outer-Iter.   Inner-Iter.     Column Row Layer    Maximum-Head-Change  Column Row Layer    Maximum-Flux-Residual          L2-NORM 
          0                 1           2             4    7     1       0.9734415886E-01       4    7    1         0.5103445630E+01      0.1257295392E+02
          0                 2           2             4    7     1      -0.9469091965E-02       4    7    1        -0.5103538406E+00      0.1258295505E+01
          0                 3           2             4    7     1      -0.3418379881E-01       5    8    1        -0.1838942343E+01      0.4520924977E+01
          0                 4           2             4    7     1       0.3622718968E-01       5    8    1         0.1998725554E+01      0.4895711219E+01
          0                 5           2             4    7     1      -0.1442934104E-02       5    8    1        -0.8185429922E-01      0.2004918106E+00
          0                 6           1             4    7     1       0.1884437270E-04       5    8    1         0.1098992806E-02      0.2694011851E-02

    ------------------------------------------------
       NWT REQUIRED            6 OUTER ITERATIONS 
       AND A TOTAL OF         11 INNER ITERATIONS.
    ------------------------------------------------

 NO OUTPUT CONTROL FOR STRESS PERIOD   10   TIME STEP   11
 
 SOLVING FOR HEAD 
                                                   Max.-Head-Change                         Max.-Flux-Residual
  Residual-Control   Outer-Iter.   Inner-Iter.     Column Row Layer    Maximum-Head-Change  Column Row Layer    Maximum-Flux-Residual          L2-NORM 
          0                 1           2             4    7     1       0.9642921958E-01       4    7    1         0.5057702278E+01      0.1227303539E+02
          0                 2           2             4    7     1      -0.9379982514E-02       4    7    1        -0.5057736711E+00      0.1228314158E+01
          0                 3           2             4    7     1      -0.3419023781E-01       5    8    1        -0.1839992846E+01      0.4522793730E+01
          0                 4           2             4    7     1       0.3622770761E-01       5    8    1         0.1998804614E+01      0.4895856794E+01
          0                 5           2             4    7     1      -0.1441883863E-02       5    8    1        -0.8179679261E-01      0.2003489883E+00
          0                 6           1             4    7     1       0.1779223997E-04       5    8    1         0.1037704085E-02      0.2544018734E-02

    ------------------------------------------------
       NWT REQUIRED            6 OUTER ITERATIONS 
       AND A TOTAL OF         11 INNER ITERATIONS.
    ------------------------------------------------

 NO OUTPUT CONTROL FOR STRESS PERIOD   10   TIME STEP   12
 
 SOLVING FOR HEAD 
                                                   Max.-Head-Change                         Max.-Flux-Residual
  Residual-Control   Outer-Iter.   Inner-Iter.     Column Row Layer    Maximum-Head-Change  Column Row Layer    Maximum-Flux-Residual          L2-NORM 
          0                 1           2             4    7     1       0.9548347364E-01       4    7    1         0.5010163863E+01      0.1198585981E+02
          0                 2           2             4    7     1      -0.9288117786E-02       4    7    1        -0.5010269339E+00      0.1199636547E+01
          0                 3           2             4    7     1      -0.3419639299E-01       5    8    1        -0.1840961483E+01      0.4524534952E+01
          0                 4           2             4    7     1       0.3622797837E-01       5    8    1         0.1998865572E+01      0.4895963036E+01
          0                 5           2             4    7     1      -0.1443027161E-02       5    8    1        -0.8186347800E-01      0.2005106030E+00
          0                 6           1             4    7     1       0.1890552373E-04       5    8    1         0.1102605507E-02      0.2702783992E-02

    ------------------------------------------------
       NWT REQUIRED            6 OUTER ITERATIONS 
       AND A TOTAL OF         11 INNER ITERATIONS.
    ------------------------------------------------

 NO OUTPUT CONTROL FOR STRESS PERIOD   10   TIME STEP   13
 
 SOLVING FOR HEAD 
                                                   Max.-Head-Change                         Max.-Flux-Residual
  Residual-Control   Outer-Iter.   Inner-Iter.     Column Row Layer    Maximum-Head-Change  Column Row Layer    Maximum-Flux-Residual          L2-NORM 
          0                 1           2             4    7     1       0.9451049627E-01       4    7    1         0.4961028154E+01      0.1171063515E+02
          0                 2           2             4    7     1      -0.9193357418E-02       4    7    1        -0.4961072123E+00      0.1172124148E+01
          0                 3           2             4    7     1      -0.3420322699E-01       5    8    1        -0.1841904765E+01      0.4526281367E+01
          0                 4           2             4    7     1       0.3622851943E-01       5    8    1         0.1998937298E+01      0.4896099693E+01
          0                 5           2             4    7     1      -0.1441916171E-02       5    8    1        -0.8180217729E-01      0.2003587879E+00
          0                 6           1             4    7     1       0.1779263920E-04       5    8    1         0.1037771841E-02      0.2544128572E-02

    ------------------------------------------------
       NWT REQUIRED            6 OUTER ITERATIONS 
       AND A TOTAL OF         11 INNER ITERATIONS.
    ------------------------------------------------

 NO OUTPUT CONTROL FOR STRESS PERIOD   10   TIME STEP   14
 
 SOLVING FOR HEAD 
                                                   Max.-Head-Change                         Max.-Flux-Residual
  Residual-Control   Outer-Iter.   Inner-Iter.     Column Row Layer    Maximum-Head-Change  Column Row Layer    Maximum-Flux-Residual          L2-NORM 
          0                 1           2             4    7     1       0.9351362525E-01       4    7    1         0.4910480490E+01      0.1144662332E+02
          0                 2           2             4    7     1      -0.9096524375E-02       4    7    1        -0.4910597812E+00      0.1145763850E+01
          0                 3           2             4    7     1      -0.3420970884E-01       5    8    1        -0.1842772028E+01      0.4527903219E+01
          0                 4           2             4    7     1       0.3622879838E-01       5    8    1         0.1998990732E+01      0.4896196333E+01
          0                 5           2             4    7     1      -0.1443155104E-02       5    8    1        -0.8187396157E-01      0.2005332455E+00
          0                 6           1             4    7     1       0.1899983404E-04       5    8    1         0.1108142183E-02      0.2716280175E-02

    ------------------------------------------------
       NWT REQUIRED            6 OUTER ITERATIONS 
       AND A TOTAL OF         11 INNER ITERATIONS.
    ------------------------------------------------

 NO OUTPUT CONTROL FOR STRESS PERIOD   10   TIME STEP   15
 
 SOLVING FOR HEAD 
                                                   Max.-Head-Change                         Max.-Flux-Residual
  Residual-Control   Outer-Iter.   Inner-Iter.     Column Row Layer    Maximum-Head-Change  Column Row Layer    Maximum-Flux-Residual          L2-NORM 
          0                 1           2             4    7     1       0.9249584998E-01       4    7    1         0.4858686723E+01      0.1119313475E+02
          0                 2           2             4    7     1      -0.8997398043E-02       4    7    1        -0.4858737836E+00      0.1120424293E+01
          0                 3           2             4    7     1      -0.3421686112E-01       5    8    1        -0.1843622420E+01      0.4529539767E+01
          0                 4           2             4    7     1       0.3622936699E-01       5    8    1         0.1999056597E+01      0.4896327260E+01
          0                 5           2             4    7     1      -0.1441949901E-02       5    8    1        -0.8180701929E-01      0.2003680076E+00
          0                 6           1             4    7     1       0.1779305522E-04       5    8    1         0.1037832791E-02      0.2544232731E-02

    ------------------------------------------------
       NWT REQUIRED            6 OUTER ITERATIONS 
       AND A TOTAL OF         11 INNER ITERATIONS.
    ------------------------------------------------

 NO OUTPUT CONTROL FOR STRESS PERIOD   10   TIME STEP   16
 
 SOLVING FOR HEAD 
                                                   Max.-Head-Change                         Max.-Flux-Residual
  Residual-Control   Outer-Iter.   Inner-Iter.     Column Row Layer    Maximum-Head-Change  Column Row Layer    Maximum-Flux-Residual          L2-NORM 
          0                 1           2             4    7     1       0.9146008676E-01       4    7    1         0.4805809047E+01      0.1094955192E+02
          0                 2           2             4    7     1      -0.8896786946E-02       4    7    1        -0.4805936046E+00      0.1096107793E+01
          0                 3           2             4    7     1      -0.3422358950E-01       5    8    1        -0.1844401114E+01      0.4531052432E+01
          0                 4           2             4    7     1       0.3622965175E-01       5    8    1         0.1999103516E+01      0.4896415330E+01
          0                 5           2             4    7     1      -0.1443250735E-02       5    8    1        -0.8188203602E-01      0.2005506979E+00
          0                 6           1             4    7     1       0.1906101610E-04       5    8    1         0.1111741000E-02      0.2725047266E-02

    ------------------------------------------------
       NWT REQUIRED            6 OUTER ITERATIONS 
       AND A TOTAL OF         11 INNER ITERATIONS.
    ------------------------------------------------

 NO OUTPUT CONTROL FOR STRESS PERIOD   10   TIME STEP   17
 
 SOLVING FOR HEAD 
                                                   Max.-Head-Change                         Max.-Flux-Residual
  Residual-Control   Outer-Iter.   Inner-Iter.     Column Row Layer    Maximum-Head-Change  Column Row Layer    Maximum-Flux-Residual          L2-NORM 
          0                 1           2             4    7     1       0.9040892127E-01       4    7    1         0.4751991462E+01      0.1071528320E+02
          0                 2           2             4    7     1      -0.8794404615E-02       4    7    1        -0.4752047754E+00      0.1072689573E+01
          0                 3           2             4    7     1      -0.3423097658E-01       5    8    1        -0.1845169933E+01      0.4532588081E+01
          0                 4           2             4    7     1       0.3623023660E-01       5    8    1         0.1999163949E+01      0.4896539729E+01
          0                 5           2             4    7     1      -0.1441984510E-02       5    8    1        -0.8181137678E-01      0.2003766355E+00
          0                 6           1             4    7     1       0.1779348245E-04       5    8    1         0.1037887615E-02      0.2544342908E-02

    ------------------------------------------------
       NWT REQUIRED            6 OUTER ITERATIONS 
       AND A TOTAL OF         11 INNER ITERATIONS.
    ------------------------------------------------

 NO OUTPUT CONTROL FOR STRESS PERIOD   10   TIME STEP   18
 
 SOLVING FOR HEAD 
                                                   Max.-Head-Change                         Max.-Flux-Residual
  Residual-Control   Outer-Iter.   Inner-Iter.     Column Row Layer    Maximum-Head-Change  Column Row Layer    Maximum-Flux-Residual          L2-NORM 
          0                 1           2             4    7     1       0.8934502388E-01       4    7    1         0.4697382468E+01      0.1048980268E+02
          0                 2           2             4    7     1      -0.8691058888E-02       4    7    1        -0.4697515584E+00      0.1050183880E+01
          0                 3           2             4    7     1      -0.3423788261E-01       5    8    1        -0.1845871051E+01      0.4534001460E+01
          0                 4           2             4    7     1       0.3623052330E-01       5    8    1         0.1999205117E+01      0.4896619921E+01
          0                 5           2             4    7     1      -0.1443380728E-02       5    8    1        -0.8189156429E-01      0.2005722410E+00
          0                 6           1             4    7     1       0.1915535038E-04       5    8    1         0.1117265670E-02      0.2738537971E-02

    ------------------------------------------------
       NWT REQUIRED            6 OUTER ITERATIONS 
       AND A TOTAL OF         11 INNER ITERATIONS.
    ------------------------------------------------

 NO OUTPUT CONTROL FOR STRESS PERIOD   10   TIME STEP   19
 
 SOLVING FOR HEAD 
                                                   Max.-Head-Change                         Max.-Flux-Residual
  Residual-Control   Outer-Iter.   Inner-Iter.     Column Row Layer    Maximum-Head-Change  Column Row Layer    Maximum-Flux-Residual          L2-NORM 
          0                 1           2             4    7     1       0.8827047665E-01       4    7    1         0.4642098842E+01      0.1027259964E+02
          0                 2           2             4    7     1      -0.8586397691E-02       4    7    1        -0.4642158706E+00      0.1028470690E+01
          0                 3           2             4    7     1      -0.3424543355E-01       5    8    1        -0.1846568054E+01      0.4535444927E+01
          0                 4           2             4    7     1       0.3623112032E-01       5    8    1         0.1999260795E+01      0.4896738393E+01
          0                 5           2             4    7     1      -0.1442019681E-02       5    8    1        -0.8181530815E-01      0.2003846861E+00
          0                 6           1             4    7     1       0.1779391651E-04       5    8    1         0.1037937107E-02      0.2544438685E-02

    ------------------------------------------------
       NWT REQUIRED            6 OUTER ITERATIONS 
       AND A TOTAL OF         11 INNER ITERATIONS.
    ------------------------------------------------

 NO OUTPUT CONTROL FOR STRESS PERIOD   10   TIME STEP   20
 
 SOLVING FOR HEAD 
                                                   Max.-Head-Change                         Max.-Flux-Residual
  Residual-Control   Outer-Iter.   Inner-Iter.     Column Row Layer    Maximum-Head-Change  Column Row Layer    Maximum-Flux-Residual          L2-NORM 
          0                 1           2             4    7     1       0.8718773604E-01       4    7    1         0.4586277449E+01      0.1006321456E+02
          0                 2           2             4    7     1      -0.8481227969E-02       4    7    1        -0.4586418798E+00      0.1007577301E+01
          0                 3           2             4    7     1      -0.3425244981E-01       5    8    1        -0.1847200710E+01      0.4536766056E+01
          0                 4           2             4    7     1       0.3623140725E-01       5    8    1         0.1999296963E+01      0.4896811506E+01
          0                 5           2             4    7     1      -0.1443415904E-02       5    8    1        -0.8189529282E-01      0.2005799971E+00
          0                 6           1             4    7     1       0.1915578075E-04       5    8    1         0.1117312601E-02      0.2738629901E-02

    ------------------------------------------------
       NWT REQUIRED            6 OUTER ITERATIONS 
       AND A TOTAL OF         11 INNER ITERATIONS.
    ------------------------------------------------

 NO OUTPUT CONTROL FOR STRESS PERIOD   10   TIME STEP   21
 
 SOLVING FOR HEAD 
                                                   Max.-Head-Change                         Max.-Flux-Residual
  Residual-Control   Outer-Iter.   Inner-Iter.     Column Row Layer    Maximum-Head-Change  Column Row Layer    Maximum-Flux-Residual          L2-NORM 
          0                 1           2             4    7     1       0.8609869223E-01       4    7    1         0.4530023974E+01      0.9861223924E+01
          0                 2           2             4    7     1      -0.8375145764E-02       4    7    1        -0.4530086107E+00      0.9873856957E+00
          0                 3           2             4    7     1      -0.3426011414E-01       5    8    1        -0.1847835197E+01      0.4538125270E+01
          0                 4           2             4    7     1       0.3623201584E-01       5    8    1         0.1999348653E+01      0.4896924935E+01
          0                 5           2             4    7     1      -0.1442055321E-02       5    8    1        -0.8181887508E-01      0.2003922527E+00
          0                 6           1             4    7     1       0.1779435640E-04       5    8    1         0.1037982017E-02      0.2544525661E-02

    ------------------------------------------------
       NWT REQUIRED            6 OUTER ITERATIONS 
       AND A TOTAL OF         11 INNER ITERATIONS.
    ------------------------------------------------

 NO OUTPUT CONTROL FOR STRESS PERIOD   10   TIME STEP   22
 
 SOLVING FOR HEAD 
                                                   Max.-Head-Change                         Max.-Flux-Residual
  Residual-Control   Outer-Iter.   Inner-Iter.     Column Row Layer    Maximum-Head-Change  Column Row Layer    Maximum-Flux-Residual          L2-NORM 
          0                 1           2             4    7     1       0.8500508760E-01       4    7    1         0.4473436380E+01      0.9666228035E+01
          0                 2           2             4    7     1      -0.8268925080E-02       4    7    1        -0.4473583008E+00      0.9679310955E+00
          0                 3           2             4    7     1      -0.3426718601E-01       5    8    1        -0.1848407344E+01      0.4539362237E+01
          0                 4           2             4    7     1       0.3623229557E-01       5    8    1         0.1999380136E+01      0.4896990945E+01
          0                 5           2             4    7     1      -0.1443546565E-02       5    8    1        -0.8190407371E-01      0.2006005069E+00
          0                 6           1             4    7     1       0.1925012231E-04       5    8    1         0.1122827857E-02      0.2752097865E-02

    ------------------------------------------------
       NWT REQUIRED            6 OUTER ITERATIONS 
       AND A TOTAL OF         11 INNER ITERATIONS.
    ------------------------------------------------

 NO OUTPUT CONTROL FOR STRESS PERIOD   10   TIME STEP   23
 
 SOLVING FOR HEAD 
                                                   Max.-Head-Change                         Max.-Flux-Residual
  Residual-Control   Outer-Iter.   Inner-Iter.     Column Row Layer    Maximum-Head-Change  Column Row Layer    Maximum-Flux-Residual          L2-NORM 
          0                 1           2             4    7     1       0.8390879309E-01       4    7    1         0.4416619525E+01      0.9477848405E+01
          0                 2           2             4    7     1      -0.8162130193E-02       4    7    1        -0.4416682874E+00      0.9490999950E+00
          0                 3           2             4    7     1      -0.3427491142E-01       5    8    1        -0.1848986547E+01      0.4540644302E+01
          0                 4           2             4    7     1       0.3623291275E-01       5    8    1         0.1999428340E+01      0.4897099802E+01
          0                 5           2             4    7     1      -0.1442091017E-02       5    8    1        -0.8182211056E-01      0.2003993311E+00
          0                 6           1             4    7     1       0.1779479640E-04       5    8    1         0.1038022744E-02      0.2544612662E-02

    ------------------------------------------------
       NWT REQUIRED            6 OUTER ITERATIONS 
       AND A TOTAL OF         11 INNER ITERATIONS.
    ------------------------------------------------

 NO OUTPUT CONTROL FOR STRESS PERIOD   10   TIME STEP   24
 
 SOLVING FOR HEAD 
                                                   Max.-Head-Change                         Max.-Flux-Residual
  Residual-Control   Outer-Iter.   Inner-Iter.     Column Row Layer    Maximum-Head-Change  Column Row Layer    Maximum-Flux-Residual          L2-NORM 
          0                 1           2             4    7     1       0.8281140888E-01       4    7    1         0.4359663137E+01      0.9295752269E+01
          0                 2           2             4    7     1      -0.8055551159E-02       4    7    1        -0.4359815883E+00      0.9309368925E+00
          0                 3           2             4    7     1      -0.3428198768E-01       5    8    1        -0.1849504993E+01      0.4541802596E+01
          0                 4           2             4    7     1       0.3623318234E-01       5    8    1         0.1999455611E+01      0.4897159123E+01
          0                 5           2             4    7     1      -0.1443674359E-02       5    8    1        -0.8191238338E-01      0.2006201614E+00
          0                 6           1             4    7     1       0.1934169988E-04       5    8    1         0.1128178237E-02      0.2765185884E-02

    ------------------------------------------------
       NWT REQUIRED            6 OUTER ITERATIONS 
       AND A TOTAL OF         11 INNER ITERATIONS.
    ------------------------------------------------

 NO OUTPUT CONTROL FOR STRESS PERIOD   10   TIME STEP   25
 
 SOLVING FOR HEAD 
                                                   Max.-Head-Change                         Max.-Flux-Residual
  Residual-Control   Outer-Iter.   Inner-Iter.     Column Row Layer    Maximum-Head-Change  Column Row Layer    Maximum-Flux-Residual          L2-NORM 
          0                 1           2             4    7     1       0.8171427083E-01       4    7    1         0.4302642976E+01      0.9119609754E+01
          0                 2           2             4    7     1      -0.7948663661E-02       4    7    1        -0.4302706698E+00      0.9133286026E+00
          0                 3           2             4    7     1      -0.3428973681E-01       5    8    1        -0.1850035725E+01      0.4543015002E+01
          0                 4           2             4    7     1       0.3623380823E-01       5    8    1         0.1999500921E+01      0.4897264229E+01
          0                 5           2             4    7     1      -0.1442126657E-02       5    8    1        -0.8182505788E-01      0.2004059923E+00
          0                 6           1             4    7     1       0.1779523651E-04       5    8    1         0.1038059865E-02      0.2544680375E-02

    ------------------------------------------------
       NWT REQUIRED            6 OUTER ITERATIONS 
       AND A TOTAL OF         11 INNER ITERATIONS.
    ------------------------------------------------

 NO OUTPUT CONTROL FOR STRESS PERIOD   10   TIME STEP   26
 
 SOLVING FOR HEAD 
                                                   Max.-Head-Change                         Max.-Flux-Residual
  Residual-Control   Outer-Iter.   Inner-Iter.     Column Row Layer    Maximum-Head-Change  Column Row Layer    Maximum-Flux-Residual          L2-NORM 
          0                 1           2             4    7     1       0.8061887140E-01       4    7    1         0.4245642754E+01      0.8949125372E+01
          0                 2           2             4    7     1      -0.7842287126E-02       4    7    1        -0.4245800866E+00      0.8963280928E+00
          0                 3           2             4    7     1      -0.3429678091E-01       5    8    1        -0.1850506633E+01      0.4544101724E+01
          0                 4           2             4    7     1       0.3623406783E-01       5    8    1         0.1999524529E+01      0.4897317611E+01
          0                 5           2             4    7     1      -0.1443774071E-02       5    8    1        -0.8191883769E-01      0.2006355350E+00
          0                 6           1             4    7     1       0.1940565669E-04       5    8    1         0.1131915650E-02      0.2774317877E-02

    ------------------------------------------------
       NWT REQUIRED            6 OUTER ITERATIONS 
       AND A TOTAL OF         11 INNER ITERATIONS.
    ------------------------------------------------

 NO OUTPUT CONTROL FOR STRESS PERIOD   10   TIME STEP   27
 
 SOLVING FOR HEAD 
                                                   Max.-Head-Change                         Max.-Flux-Residual
  Residual-Control   Outer-Iter.   Inner-Iter.     Column Row Layer    Maximum-Head-Change  Column Row Layer    Maximum-Flux-Residual          L2-NORM 
          0                 1           2             4    7     1       0.7952645158E-01       4    7    1         0.4188732650E+01      0.8784021129E+01
          0                 2           2             4    7     1      -0.7735848149E-02       4    7    1        -0.4188796078E+00      0.8798229199E+00
          0                 3           2             4    7     1      -0.3430451414E-01       5    8    1        -0.1850994397E+01      0.4545249054E+01
          0                 4           2             4    7     1       0.3623469801E-01       5    8    1         0.1999567208E+01      0.4897419017E+01
          0                 5           2             4    7     1      -0.1442162070E-02       5    8    1        -0.8182774991E-01      0.2004122573E+00
          0                 6           1             4    7     1       0.1779567337E-04       5    8    1         0.1038093754E-02      0.2544756375E-02

    ------------------------------------------------
       NWT REQUIRED            6 OUTER ITERATIONS 
       AND A TOTAL OF         11 INNER ITERATIONS.
    ------------------------------------------------

 NO OUTPUT CONTROL FOR STRESS PERIOD   10   TIME STEP   28
 
 SOLVING FOR HEAD 
                                                   Max.-Head-Change                         Max.-Flux-Residual
  Residual-Control   Outer-Iter.   Inner-Iter.     Column Row Layer    Maximum-Head-Change  Column Row Layer    Maximum-Flux-Residual          L2-NORM 
          0                 1           2             4    7     1       0.7843814568E-01       4    7    1         0.4131976967E+01      0.8624038017E+01
          0                 2           2             4    7     1      -0.7630167847E-02       4    7    1        -0.4132138071E+00      0.8638737828E+00
          0                 3           2             4    7     1      -0.3431149081E-01       5    8    1        -0.1851423006E+01      0.4546269292E+01
          0                 4           2             4    7     1       0.3623494130E-01       5    8    1         0.1999587277E+01      0.4897466246E+01
          0                 5           2             4    7     1      -0.1443901336E-02       5    8    1        -0.8192663117E-01      0.2006543886E+00
          0                 6           1             4    7     1       0.1949722720E-04       5    8    1         0.1137259533E-02      0.2787380187E-02

    ------------------------------------------------
       NWT REQUIRED            6 OUTER ITERATIONS 
       AND A TOTAL OF         11 INNER ITERATIONS.
    ------------------------------------------------

 NO OUTPUT CONTROL FOR STRESS PERIOD   10   TIME STEP   29
 
 SOLVING FOR HEAD 
                                                   Max.-Head-Change                         Max.-Flux-Residual
  Residual-Control   Outer-Iter.   Inner-Iter.     Column Row Layer    Maximum-Head-Change  Column Row Layer    Maximum-Flux-Residual          L2-NORM 
          0                 1           2             4    7     1       0.7735485769E-01       4    7    1         0.4075427307E+01      0.8468927532E+01
          0                 2           2             4    7     1      -0.7524610139E-02       4    7    1        -0.4075489916E+00      0.8483674732E+00
          0                 3           2             4    7     1      -0.3431917933E-01       5    8    1        -0.1851872770E+01      0.4547357328E+01
          0                 4           2             4    7     1       0.3623557850E-01       5    8    1         0.1999627910E+01      0.4897564930E+01
          0                 5           2             4    7     1      -0.1442197114E-02       5    8    1        -0.8183021543E-01      0.2004181472E+00
          0                 6           1             4    7     1       0.1779610586E-04       5    8    1         0.1038124814E-02      0.2544817852E-02

    ------------------------------------------------
       NWT REQUIRED            6 OUTER ITERATIONS 
       AND A TOTAL OF         11 INNER ITERATIONS.
    ------------------------------------------------

 NO OUTPUT CONTROL FOR STRESS PERIOD   10   TIME STEP   30



 STREAM LISTING     PERIOD     10   STEP       30

 LAYER ROW COL. STREAM  RCH.  FLOW INTO     FLOW TO   FLOW OUT OF   OVRLND.     DIRECT     STREAM       STREAM     STREAM     STREAM   STREAMBED  STREAMBED
                SEG.NO.  NO.  STRM. RCH.    AQUIFER    STRM. RCH.    RUNOFF     PRECIP       ET          HEAD       DEPTH      WIDTH   CONDCTNC.   GRADIENT

   1    1    1     1     1    1.7625E+01  2.0521E-01   1.7420E+01  0.000E+00  0.000E+00  0.000E+00  1.09411E+03  1.059E+00  1.124E+01  5.056E-02  1.353E+00
   1    2    2     1     2    1.7420E+01  3.1649E-01   1.7103E+01  0.000E+00  0.000E+00  0.000E+00  1.08911E+03  1.054E+00  1.115E+01  7.807E-02  1.351E+00
   1    3    3     1     3    1.7103E+01  2.6863E-01   1.6835E+01  0.000E+00  0.000E+00  0.000E+00  1.08347E+03  1.049E+00  1.106E+01  6.635E-02  1.350E+00
   1    3    4     1     4    1.6835E+01  2.4632E-01   1.6588E+01  0.000E+00  0.000E+00  0.000E+00  1.07845E+03  1.044E+00  1.097E+01  6.091E-02  1.348E+00
   1    4    5     2     1    1.4588E+01  3.0175E-01   1.4286E+01  0.000E+00  0.000E+00  0.000E+00  1.07280E+03  8.686E-01  1.200E+01  7.800E-02  1.290E+00
   1    5    6     2     2    1.4286E+01  2.3154E-01   1.4055E+01  0.000E+00  0.000E+00  0.000E+00  1.06737E+03  8.590E-01  1.200E+01  6.000E-02  1.286E+00
   1    6    6     2     3    1.4055E+01  2.3103E-01   1.3824E+01  0.000E+00  0.000E+00  0.000E+00  1.06264E+03  8.505E-01  1.200E+01  6.000E-02  1.284E+00
   1    7    6     2     4    1.3824E+01  2.3052E-01   1.3593E+01  0.000E+00  0.000E+00  0.000E+00  1.05792E+03  8.421E-01  1.200E+01  6.000E-02  1.281E+00
   1    8    6     2     5    1.3593E+01  2.3001E-01   1.3363E+01  0.000E+00  0.000E+00  0.000E+00  1.05319E+03  8.335E-01  1.200E+01  6.000E-02  1.278E+00
   1    3    5     3     1    2.0000E+00  2.8252E-01   1.7175E+00  0.000E+00  0.000E+00  0.000E+00  1.07555E+03  1.909E+00  9.636E+00  7.227E-02  1.955E+00
   1    3    6     3     2    1.7175E+00  2.4905E-01   1.4684E+00  0.000E+00  0.000E+00  0.000E+00  1.07264E+03  1.727E+00  8.909E+00  6.682E-02  1.864E+00
   1    3    7     3     3    1.4684E+00  1.9718E-01   1.2712E+00  0.000E+00  0.000E+00  0.000E+00  1.06987E+03  1.555E+00  8.218E+00  5.547E-02  1.777E+00
   1    4    8     3     4    1.2712E+00  2.2567E-01   1.0456E+00  0.000E+00  0.000E+00  0.000E+00  1.06682E+03  1.364E+00  7.455E+00  6.709E-02  1.682E+00
   1    5    8     3     5    1.0456E+00  1.5790E-01   8.8768E-01  0.000E+00  0.000E+00  0.000E+00  1.06362E+03  1.164E+00  6.655E+00  4.991E-02  1.582E+00
   1    6    8     3     6    8.8768E-01  5.5980E-02   8.3170E-01  0.000E+00  0.000E+00  0.000E+00  1.06158E+03  1.036E+00  6.145E+00  1.844E-02  1.518E+00
   1    5   10     4     1    1.0000E+01  9.0919E-02   9.9091E+00  0.000E+00  0.000E+00  0.000E+00  1.07836E+03  6.368E-01  1.000E+01  2.500E-02  1.212E+00
   1    5    9     4     2    9.9091E+00  1.8158E-01   9.7275E+00  0.000E+00  0.000E+00  0.000E+00  1.07154E+03  6.315E-01  1.000E+01  5.000E-02  1.211E+00
   1    6    8     4     3    9.7275E+00  1.2689E-01   9.6006E+00  0.000E+00  0.000E+00  0.000E+00  1.06381E+03  6.256E-01  1.000E+01  3.500E-02  1.209E+00
   1    6    8     5     1    1.0432E+01  2.2686E-01   1.0205E+01  0.000E+00  0.000E+00  0.000E+00  1.05868E+03  6.790E-01  1.542E+01  6.166E-02  1.226E+00
   1    7    7     5     2    1.0205E+01  2.7894E-01   9.9265E+00  0.000E+00  0.000E+00  0.000E+00  1.05417E+03  6.732E-01  1.519E+01  7.594E-02  1.224E+00
   1    8    7     5     3    9.9265E+00  1.9221E-01   9.7343E+00  0.000E+00  0.000E+00  0.000E+00  1.04992E+03  6.676E-01  1.497E+01  5.241E-02  1.223E+00
   1    8    6     5     4    9.7343E+00  1.3577E-01   9.5985E+00  0.000E+00  0.000E+00  0.000E+00  1.04691E+03  6.637E-01  1.482E+01  3.706E-02  1.221E+00
   1    9    6     6     1    1.1742E+01  2.2629E-01   1.1516E+01  0.000E+00  0.000E+00  0.000E+00  1.04350E+03  7.714E-01  1.200E+01  6.000E-02  1.257E+00
   1   10    7     6     2    1.1516E+01  2.2574E-01   1.1290E+01  0.000E+00  0.000E+00  0.000E+00  1.03894E+03  7.624E-01  1.200E+01  6.000E-02  1.254E+00
   1   11    7     6     3    1.1290E+01  2.2520E-01   1.1065E+01  0.000E+00  0.000E+00  0.000E+00  1.03439E+03  7.533E-01  1.200E+01  6.000E-02  1.251E+00
   1   12    7     6     4    1.1065E+01  2.2465E-01   1.0840E+01  0.000E+00  0.000E+00  0.000E+00  1.02984E+03  7.442E-01  1.200E+01  6.000E-02  1.248E+00
   1   13    7     6     5    1.0840E+01 -4.3286E-02   1.0884E+01  0.000E+00  0.000E+00  0.000E+00  1.02665E+03  7.405E-01  1.200E+01  2.400E-01 -6.012E-02
   1   14    9     7     1    1.5000E+02  1.3688E+00   1.4863E+02  0.000E+00  0.000E+00  0.000E+00  1.03987E+03  2.288E+00  5.529E+01  5.593E-01  8.158E-01
   1   13    8     7     2    1.4863E+02  1.9192E+00   1.4671E+02  0.000E+00  0.000E+00  0.000E+00  1.03478E+03  2.279E+00  5.526E+01  6.148E-01  1.041E+00
   1   13    7     7     3    1.4671E+02  1.5964E+00   1.4512E+02  0.000E+00  0.000E+00  0.000E+00  1.02969E+03  2.270E+00  5.521E+01  5.584E-01  9.530E-01
   1   13    6     8     1    1.5600E+02  9.5971E-01   1.5504E+02  0.000E+00  0.000E+00  0.000E+00  1.02473E+03  2.855E+00  4.140E+01  4.219E-01  7.583E-01
   1   13    5     8     2    1.5504E+02  2.2007E-01   1.5482E+02  0.000E+00  0.000E+00  0.000E+00  1.01848E+03  2.851E+00  4.134E+01  4.213E-01  1.741E-01
   1   13    4     8     3    1.5482E+02 -2.2710E+00   1.5709E+02  0.000E+00  0.000E+00  0.000E+00  1.01223E+03  2.858E+00  4.144E+01  4.223E+00 -1.792E-01
   1   13    3     8     4    1.5709E+02 -3.5623E+00   1.6065E+02  0.000E+00  0.000E+00  0.000E+00  1.00600E+03  2.878E+00  4.173E+01  4.253E+00 -2.792E-01
   1   13    2     8     5    1.6065E+02 -2.5560E+00   1.6321E+02  0.000E+00  0.000E+00  0.000E+00  9.99774E+02  2.899E+00  4.203E+01  4.283E+00 -1.989E-01
   1   13    1     8     6    1.6321E+02 -1.9716E+00   1.6518E+02  0.000E+00  0.000E+00  0.000E+00  9.94789E+02  2.914E+00  4.225E+01  2.583E+00 -2.544E-01
   1    8    6     9     1    1.1220E+01  0.0000E+00   1.1220E+01  0.000E+00  0.000E+00  0.000E+00  1.08118E+03  2.428E+00  4.000E+00  0.000E+00  1.809E+00
   1    8    5     9     2    1.1220E+01  0.0000E+00   1.1220E+01  0.000E+00  0.000E+00  0.000E+00  1.08068E+03  2.428E+00  4.000E+00  0.000E+00  1.809E+00





UNSATURATED ZONE PACKAGE VOLUMETRIC BUDGET FOR  TIME STEP    30 STRESS PERIOD   10
  ------------------------------------------------------------------------------



     CUMULATIVE VOLUMES      L**3       RATES FOR THIS TIME STEP      L**3/T
     ------------------                 ------------------------

           IN:                                      IN:
           ---                                      ---
        INFILTRATION =   645311937.7385          INFILTRATION =          12.0674

          OUT:                                     OUT:
          ----                                     ----
              UZF ET =   423920878.8878                UZF ET =          12.0675
        UZF RECHARGE =       73224.0000          UZF RECHARGE =       0.0000E+00

            IN - OUT =   221317834.8506              IN - OUT =      -6.1512E-05

          STORAGE:                                 STORAGE:
          --------                                 --------
      STORAGE CHANGE =   221318044.0890        STORAGE CHANGE =      -6.1830E-05

 PERCENT DISCREPANCY IS DIFFERENCE BETWEEN IN-OUT MINUS CHANGE IN STORAGE
 DIVIDED BY THE AVERAGE OF IN AND OUT TIMES 100

 PERCENT DISCREPANCY =          -0.00     PERCENT DISCREPANCY =           0.00






1
  VOLUMETRIC BUDGET FOR AGRICULTURAL FIELDS AT  END OF TIME STEP   30, STRESS PERIOD  10
  ------------------------------------------------------------------------------

     CUMULATIVE VOLUMES      L**3       RATES FOR THIS TIME STEP      L**3/T
     ------------------                 ------------------------

           IN:                                      IN:
           ---                                      ---
               AG WELLS  =   405755808.0000                 AG WELLS  =           0.0000
      DIVERSION SEGMENTS =   219481136.0000        DIVERSION SEGMENTS =          11.2197
       IRRIGATION PONDS  =           0.0000         IRRIGATION PONDS  =           0.0000
           GW IRRIGATION =           0.0000             GW IRRIGATION =           0.0000
           SW IRRIGATION =           0.0000             SW IRRIGATION =           0.0000
        SYSTEM LOSSES GW =           0.0000          SYSTEM LOSSES GW =           0.0000
        SYSTEM LOSSES SW =           0.0000          SYSTEM LOSSES SW =           0.0000

                TOTAL IN =   625236928.0000                  TOTAL IN =          11.2197

          OUT:                                     OUT:
          ----                                     ----
               AG WELLS  =           0.0000                 AG WELLS  =           0.0000
      DIVERSION SEGMENTS =           0.0000        DIVERSION SEGMENTS =           0.0000
       IRRIGATION PONDS  =           0.0000         IRRIGATION PONDS  =           0.0000
           GW IRRIGATION =   405755808.0000             GW IRRIGATION =           0.0000
           SW IRRIGATION =   219485376.0000             SW IRRIGATION =          11.2199
        SYSTEM LOSSES GW =           0.0000          SYSTEM LOSSES GW =           0.0000
        SYSTEM LOSSES SW =           0.0000          SYSTEM LOSSES SW =           0.0000

               TOTAL OUT =   625241216.0000                 TOTAL OUT =          11.2199

                IN - OUT =       -4288.0000                  IN - OUT =      -2.2411E-04

     PERCENT DISCREPANCY =          -0.00         PERCENT DISCREPANCY =          -0.00



1
  VOLUMETRIC BUDGET FOR ENTIRE MODEL AT END OF TIME STEP   30, STRESS PERIOD  10
  ------------------------------------------------------------------------------

     CUMULATIVE VOLUMES      L**3       RATES FOR THIS TIME STEP      L**3/T
     ------------------                 ------------------------

           IN:                                      IN:
           ---                                      ---
             STORAGE     =   532711776.0000               STORAGE     =          17.8859
       CONSTANT HEAD     =           0.0000         CONSTANT HEAD     =           0.0000
     HEAD DEP BOUNDS     =     6839598.0000       HEAD DEP BOUNDS     =           0.2880
      STREAM LEAKAGE     =   281091776.0000        STREAM LEAKAGE     =          11.6291
        UZF RECHARGE     =       73223.9531          UZF RECHARGE     =           0.0000
               GW ET     =           0.0000                 GW ET     =           0.0000
     SURFACE LEAKAGE     =           0.0000       SURFACE LEAKAGE     =           0.0000
           AG WELLS      =           0.0000             AG WELLS      =           0.0000

                TOTAL IN =   820716352.0000                  TOTAL IN =          29.8029

          OUT:                                     OUT:
          ----                                     ----
             STORAGE     =   162035712.0000               STORAGE     =          19.1118
       CONSTANT HEAD     =           0.0000         CONSTANT HEAD     =           0.0000
     HEAD DEP BOUNDS     =     6843703.0000       HEAD DEP BOUNDS     =           0.2870
      STREAM LEAKAGE     =   246083280.0000        STREAM LEAKAGE     =          10.4041
        UZF RECHARGE     =           0.0000          UZF RECHARGE     =           0.0000
               GW ET     =           0.0000                 GW ET     =           0.0000
     SURFACE LEAKAGE     =           0.0000       SURFACE LEAKAGE     =           0.0000
           AG WELLS      =   405755808.0000             AG WELLS      =           0.0000

               TOTAL OUT =   820718464.0000                 TOTAL OUT =          29.8028

                IN - OUT =       -2112.0000                  IN - OUT =       9.7275E-05

     PERCENT DISCREPANCY =          -0.00         PERCENT DISCREPANCY =           0.00






         TIME SUMMARY AT END OF TIME STEP   30 IN STRESS PERIOD   10
                    SECONDS     MINUTES      HOURS       DAYS        YEARS
                    -----------------------------------------------------------
   TIME STEP LENGTH  87667.      1461.1      24.352      1.0147     2.77799E-03
 STRESS PERIOD TIME 2.63000E+06  43833.      730.56      30.440     8.33397E-02
         TOTAL TIME 2.37564E+07 3.95940E+05  6599.0      274.96     0.75279    
1
1
                            STRESS PERIOD NO.   11, LENGTH =   2630000.    
                            -----------------------------------------------

                              NUMBER OF TIME STEPS =    30

                               MULTIPLIER FOR DELT =     1.000

                            INITIAL TIME STEP SIZE =   87666.66    

 REUSING NON-PARAMETER GHB CELLS FROM LAST STRESS PERIOD

      2 GHB CELLS

 REUSING STREAM SEGMENT DATA FROM LAST STRESS PERIOD



            AREAL INFILTRATION RATE
 READING ON UNIT   19 WITH FORMAT: (FREE)              

            1           2           3           4           5           6           7           8           9          10
 ........................................................................................................................
   1   1.0000E-10  2.0000E-10   0.000       0.000       0.000       0.000       0.000       0.000       0.000       0.000    
   2   2.0000E-10  1.0000E-10  2.0000E-10   0.000       0.000      8.0000E-10  8.0000E-10  5.0000E-10   0.000       0.000    
   3    0.000      5.0000E-10  1.0000E-10  1.0000E-10  8.0000E-10  8.0000E-10  5.0000E-10  5.0000E-10   0.000       0.000    
   4   8.0000E-10  5.0000E-10  1.0000E-10  1.0000E-10  1.0000E-10  1.0000E-10  1.0000E-10  1.0000E-10  2.0000E-10   0.000    
   5   8.0000E-10  5.0000E-10  1.0000E-10  1.0000E-10  1.0000E-10  1.0000E-10  1.0000E-10  1.0000E-10  1.0000E-10  1.0000E-10
   6   8.0000E-10  5.0000E-10  5.0000E-10  2.0000E-10  2.0000E-10  1.0000E-10  1.0000E-10  1.0000E-10  1.0000E-10  5.0000E-10
   7   8.0000E-10  5.0000E-10  5.0000E-10  2.0000E-10  2.0000E-10  1.0000E-10  1.0000E-10  2.0000E-10  2.0000E-10   0.000    
   8    0.000      5.0000E-10  5.0000E-10  2.0000E-10  2.0000E-10  1.0000E-10  1.0000E-10  2.0000E-10  5.0000E-10   0.000    
   9    0.000      5.0000E-10  5.0000E-10  2.0000E-10  2.0000E-10  1.0000E-10  1.0000E-10  2.0000E-10  5.0000E-10   0.000    
  10    0.000      5.0000E-10  5.0000E-10  2.0000E-10  2.0000E-10  1.0000E-10  1.0000E-10  2.0000E-10  5.0000E-10  8.0000E-10
  11    0.000      1.0000E-10  1.0000E-10  1.0000E-10  1.0000E-10  1.0000E-10  1.0000E-10  2.0000E-10  5.0000E-10   0.000    
  12   1.0000E-10  1.0000E-10  1.0000E-10  1.0000E-10  1.0000E-10  1.0000E-10  1.0000E-10  1.0000E-10  2.0000E-10   0.000    
  13   1.0000E-10  1.0000E-10  2.0000E-10  2.0000E-10  2.0000E-10  2.0000E-10  2.0000E-10  1.0000E-10  1.0000E-10   0.000    
  14    0.000      2.0000E-10  5.0000E-10  5.0000E-10  5.0000E-10  5.0000E-10  5.0000E-10  2.0000E-10  1.0000E-10   0.000    
  15    0.000       0.000      8.0000E-10  8.0000E-10  8.0000E-10  8.0000E-10   0.000       0.000       0.000       0.000    

                  ET RATE =  5.000000E-09

 USING ET EXTINCTION DEPTH FROM PREVIOUS STRESS PERIOD. CURRENT PERIOD IS:      11

 USING EXTINCTION WATER CONTENT FROM PREVIOUS STRESS PERIOD. CURRENT PERIOD IS:      11

 USING AIR ENTRY PRESSURE FROM PREVIOUS STRESS PERIOD. CURRENT PERIOD IS:      11

 USING ROOT PRESSURE HEAD FROM PREVIOUS STRESS PERIOD. CURRENT PERIOD IS:      11

 USING ROOT ACTIVITY FROM PREVIOUS STRESS PERIOD. CURRENT PERIOD IS:      11

 PROCESSING AG STRESS PERIOD DATA

 READING AG STRESS PERIOD DATA

 READING IRRIGATION SEGMENT

 READING IRRIGATION WELL

 READING SUPPLEMENTAL WELL

 NO IRRPOND OR REUSING IRRPOND DATA FROM LAST STRESS PERIOD

 END PROCESSING AG STRESS PERIOD DATA OPTIONS
 
 SOLVING FOR HEAD 
                                                   Max.-Head-Change                         Max.-Flux-Residual
  Residual-Control   Outer-Iter.   Inner-Iter.     Column Row Layer    Maximum-Head-Change  Column Row Layer    Maximum-Flux-Residual          L2-NORM 
          0                 1           2             4    7     1       0.7627765476E-01       4    7    1         0.4019145001E+01      0.8317181517E+01
          0                 2           2             4    7     1      -0.7419826660E-02       4    7    1        -0.4019206937E+00      0.8324299017E+00
          0                 3           2             4    7     1       0.5052618003E-03       4    7    1         0.2813440211E-01      0.5826645868E-01
          0                 4           1             4    7     1      -0.2010484372E-04       4    7    1        -0.1150698923E-02      0.2382883336E-02

    ------------------------------------------------
       NWT REQUIRED            4 OUTER ITERATIONS 
       AND A TOTAL OF          7 INNER ITERATIONS.
    ------------------------------------------------

 NO OUTPUT CONTROL FOR STRESS PERIOD   11   TIME STEP    1
 
 SOLVING FOR HEAD 
                                                   Max.-Head-Change                         Max.-Flux-Residual
  Residual-Control   Outer-Iter.   Inner-Iter.     Column Row Layer    Maximum-Head-Change  Column Row Layer    Maximum-Flux-Residual          L2-NORM 
          0                 1           2             4    7     1       0.7520737465E-01       4    7    1         0.3963178297E+01      0.8170071566E+01
          0                 2           2             4    7     1      -0.7315716651E-02       4    7    1        -0.3963239579E+00      0.8169919333E+00
          0                 3           2             4    7     1       0.4981723038E-03       4    7    1         0.2774263105E-01      0.5718792126E-01
          0                 4           1             4    7     1      -0.1982274587E-04       4    7    1        -0.1134675455E-02      0.2338901964E-02

    ------------------------------------------------
       NWT REQUIRED            4 OUTER ITERATIONS 
       AND A TOTAL OF          7 INNER ITERATIONS.
    ------------------------------------------------

 NO OUTPUT CONTROL FOR STRESS PERIOD   11   TIME STEP    2
 
 SOLVING FOR HEAD 
                                                   Max.-Head-Change                         Max.-Flux-Residual
  Residual-Control   Outer-Iter.   Inner-Iter.     Column Row Layer    Maximum-Head-Change  Column Row Layer    Maximum-Flux-Residual          L2-NORM 
          0                 1           2             4    7     1       0.7414479560E-01       4    7    1         0.3907570349E+01      0.8027457532E+01
          0                 2           2             4    7     1      -0.7212355632E-02       4    7    1        -0.3907630899E+00      0.8027330748E+00
          0                 3           2             4    7     1       0.4911338116E-03       4    7    1         0.2735337081E-01      0.5618999461E-01
          0                 4           1             4    7     1      -0.1954267772E-04       4    7    1        -0.1118754677E-02      0.2298094328E-02

    ------------------------------------------------
       NWT REQUIRED            4 OUTER ITERATIONS 
       AND A TOTAL OF          7 INNER ITERATIONS.
    ------------------------------------------------

 NO OUTPUT CONTROL FOR STRESS PERIOD   11   TIME STEP    3
 
 SOLVING FOR HEAD 
                                                   Max.-Head-Change                         Max.-Flux-Residual
  Residual-Control   Outer-Iter.   Inner-Iter.     Column Row Layer    Maximum-Head-Change  Column Row Layer    Maximum-Flux-Residual          L2-NORM 
          0                 1           2             4    7     1       0.7309076087E-01       4    7    1         0.3852368900E+01      0.7888968516E+01
          0                 2           2             4    7     1      -0.7109825643E-02       4    7    1        -0.3852428652E+00      0.7888863111E+00
          0                 3           2             4    7     1       0.4841519110E-03       4    7    1         0.2696695567E-01      0.5522091614E-01
          0                 4           1             4    7     1      -0.1926486135E-04       4    7    1        -0.1102950284E-02      0.2258480999E-02

    ------------------------------------------------
       NWT REQUIRED            4 OUTER ITERATIONS 
       AND A TOTAL OF          7 INNER ITERATIONS.
    ------------------------------------------------

 NO OUTPUT CONTROL FOR STRESS PERIOD   11   TIME STEP    4
 
 SOLVING FOR HEAD 
                                                   Max.-Head-Change                         Max.-Flux-Residual
  Residual-Control   Outer-Iter.   Inner-Iter.     Column Row Layer    Maximum-Head-Change  Column Row Layer    Maximum-Flux-Residual          L2-NORM 
          0                 1           2             4    7     1       0.7204562993E-01       4    7    1         0.3797595906E+01      0.7754408491E+01
          0                 2           2             4    7     1      -0.7008161664E-02       4    7    1        -0.3797654803E+00      0.7754331372E+00
          0                 3           2             4    7     1       0.4772289828E-03       4    7    1         0.2658353936E-01      0.5427854330E-01
          0                 4           1             4    7     1      -0.1898939163E-04       4    7    1        -0.1087268533E-02      0.2219919196E-02

    ------------------------------------------------
       NWT REQUIRED            4 OUTER ITERATIONS 
       AND A TOTAL OF          7 INNER ITERATIONS.
    ------------------------------------------------

 NO OUTPUT CONTROL FOR STRESS PERIOD   11   TIME STEP    5
 
 SOLVING FOR HEAD 
                                                   Max.-Head-Change                         Max.-Flux-Residual
  Residual-Control   Outer-Iter.   Inner-Iter.     Column Row Layer    Maximum-Head-Change  Column Row Layer    Maximum-Flux-Residual          L2-NORM 
          0                 1           2             4    7     1       0.7101037931E-01       4    7    1         0.3743306290E+01      0.7623613313E+01
          0                 2           2             4    7     1      -0.6907458699E-02       4    7    1        -0.3743364283E+00      0.7623724008E+00
          0                 3           2             4    7     1       0.4703714971E-03       4    7    1         0.2620350641E-01      0.5336524881E-01
          0                 4           1             4    7     1      -0.1871652574E-04       4    7    1        -0.1071725166E-02      0.2182581729E-02

    ------------------------------------------------
       NWT REQUIRED            4 OUTER ITERATIONS 
       AND A TOTAL OF          7 INNER ITERATIONS.
    ------------------------------------------------

 NO OUTPUT CONTROL FOR STRESS PERIOD   11   TIME STEP    6
 
 SOLVING FOR HEAD 
                                                   Max.-Head-Change                         Max.-Flux-Residual
  Residual-Control   Outer-Iter.   Inner-Iter.     Column Row Layer    Maximum-Head-Change  Column Row Layer    Maximum-Flux-Residual          L2-NORM 
          0                 1           2             4    7     1       0.6998510464E-01       4    7    1         0.3689507137E+01      0.7496405599E+01
          0                 2           2             4    7     1      -0.6807726058E-02       4    7    1        -0.3689564186E+00      0.7496348248E+00
          0                 3           2             4    7     1       0.4635800874E-03       4    7    1         0.2582690647E-01      0.5247374000E-01
          0                 4           1             4    7     1      -0.1844628891E-04       4    7    1        -0.1056322197E-02      0.2146133359E-02

    ------------------------------------------------
       NWT REQUIRED            4 OUTER ITERATIONS 
       AND A TOTAL OF          7 INNER ITERATIONS.
    ------------------------------------------------

 NO OUTPUT CONTROL FOR STRESS PERIOD   11   TIME STEP    7
 
 SOLVING FOR HEAD 
                                                   Max.-Head-Change                         Max.-Flux-Residual
  Residual-Control   Outer-Iter.   Inner-Iter.     Column Row Layer    Maximum-Head-Change  Column Row Layer    Maximum-Flux-Residual          L2-NORM 
          0                 1           2             4    7     1       0.6897066685E-01       4    7    1         0.3636246960E+01      0.7372642199E+01
          0                 2           2             4    7     1      -0.6709047502E-02       4    7    1        -0.3636303031E+00      0.7372596577E+00
          0                 3           2             4    7     1       0.4568604579E-03       4    7    1         0.2545407917E-01      0.5160758637E-01
          0                 4           1             4    7     1      -0.1817890886E-04       4    7    1        -0.1041073545E-02      0.2110714254E-02

    ------------------------------------------------
       NWT REQUIRED            4 OUTER ITERATIONS 
       AND A TOTAL OF          7 INNER ITERATIONS.
    ------------------------------------------------

 NO OUTPUT CONTROL FOR STRESS PERIOD   11   TIME STEP    8
 
 SOLVING FOR HEAD 
                                                   Max.-Head-Change                         Max.-Flux-Residual
  Residual-Control   Outer-Iter.   Inner-Iter.     Column Row Layer    Maximum-Head-Change  Column Row Layer    Maximum-Flux-Residual          L2-NORM 
          0                 1           2             4    7     1       0.6796718425E-01       4    7    1         0.3583534100E+01      0.7252187733E+01
          0                 2           2             4    7     1      -0.6611434544E-02       4    7    1        -0.3583589165E+00      0.7252152305E+00
          0                 3           2             4    7     1       0.4502133915E-03       4    7    1         0.2508508290E-01      0.5076456193E-01
          0                 4           1             4    7     1      -0.1791441575E-04       4    7    1        -0.1025981563E-02      0.2076241997E-02

    ------------------------------------------------
       NWT REQUIRED            4 OUTER ITERATIONS 
       AND A TOTAL OF          7 INNER ITERATIONS.
    ------------------------------------------------

 NO OUTPUT CONTROL FOR STRESS PERIOD   11   TIME STEP    9
 
 SOLVING FOR HEAD 
                                                   Max.-Head-Change                         Max.-Flux-Residual
  Residual-Control   Outer-Iter.   Inner-Iter.     Column Row Layer    Maximum-Head-Change  Column Row Layer    Maximum-Flux-Residual          L2-NORM 
          0                 1           2             4    7     1       0.6697513883E-01       4    7    1         0.3531396472E+01      0.7134900087E+01
          0                 2           2             4    7     1      -0.6514934079E-02       4    7    1        -0.3531450510E+00      0.7134873106E+00
          0                 3           2             4    7     1       0.4436420818E-03       4    7    1         0.2472011312E-01      0.4994367354E-01
          0                 4           1             4    7     1      -0.1765293679E-04       4    7    1        -0.1011054259E-02      0.2042672977E-02

    ------------------------------------------------
       NWT REQUIRED            4 OUTER ITERATIONS 
       AND A TOTAL OF          7 INNER ITERATIONS.
    ------------------------------------------------

 NO OUTPUT CONTROL FOR STRESS PERIOD   11   TIME STEP   10
 
 SOLVING FOR HEAD 
                                                   Max.-Head-Change                         Max.-Flux-Residual
  Residual-Control   Outer-Iter.   Inner-Iter.     Column Row Layer    Maximum-Head-Change  Column Row Layer    Maximum-Flux-Residual          L2-NORM 
          0                 1           2             4    7     1       0.6599496082E-01       4    7    1         0.3479859072E+01      0.7020663025E+01
          0                 2           2             4    7     1      -0.6419587964E-02       4    7    1        -0.3479912066E+00      0.7020643675E+00
          0                 3           2             4    7     1       0.4371493800E-03       4    7    1         0.2435934484E-01      0.4914414306E-01
          0                 4           1             4    7     1      -0.1739458620E-04       4    7    1        -0.9962988249E-03      0.2009969565E-02

    ------------------------------------------------
       NWT REQUIRED            4 OUTER ITERATIONS 
       AND A TOTAL OF          7 INNER ITERATIONS.
    ------------------------------------------------

 NO OUTPUT CONTROL FOR STRESS PERIOD   11   TIME STEP   11
 
 SOLVING FOR HEAD 
                                                   Max.-Head-Change                         Max.-Flux-Residual
  Residual-Control   Outer-Iter.   Inner-Iter.     Column Row Layer    Maximum-Head-Change  Column Row Layer    Maximum-Flux-Residual          L2-NORM 
          0                 1           2             4    7     1       0.6502676721E-01       4    7    1         0.3428929680E+01      0.6909347789E+01
          0                 2           2             4    7     1      -0.6325407585E-02       4    7    1        -0.3428981619E+00      0.6909334812E+00
          0                 3           2             4    7     1       0.4307360605E-03       4    7    1         0.2400283256E-01      0.4836503598E-01
          0                 4           1             4    7     1      -0.1713939401E-04       4    7    1        -0.9817174432E-03      0.1978164664E-02

    ------------------------------------------------
       NWT REQUIRED            4 OUTER ITERATIONS 
       AND A TOTAL OF          7 INNER ITERATIONS.
    ------------------------------------------------

 NO OUTPUT CONTROL FOR STRESS PERIOD   11   TIME STEP   12
 
 SOLVING FOR HEAD 
                                                   Max.-Head-Change                         Max.-Flux-Residual
  Residual-Control   Outer-Iter.   Inner-Iter.     Column Row Layer    Maximum-Head-Change  Column Row Layer    Maximum-Flux-Residual          L2-NORM 
          0                 1           2             4    7     1       0.6407077277E-01       4    7    1         0.3378621626E+01      0.6800843186E+01
          0                 2           2             4    7     1      -0.6232413841E-02       4    7    1        -0.3378672500E+00      0.6800835361E+00
          0                 3           2             4    7     1       0.4244035463E-03       4    7    1         0.2365066958E-01      0.4760557984E-01
          0                 4           1             4    7     1      -0.1688741757E-04       4    7    1        -0.9673139468E-03      0.1947057576E-02

    ------------------------------------------------
       NWT REQUIRED            4 OUTER ITERATIONS 
       AND A TOTAL OF          7 INNER ITERATIONS.
    ------------------------------------------------

 NO OUTPUT CONTROL FOR STRESS PERIOD   11   TIME STEP   13
 
 SOLVING FOR HEAD 
                                                   Max.-Head-Change                         Max.-Flux-Residual
  Residual-Control   Outer-Iter.   Inner-Iter.     Column Row Layer    Maximum-Head-Change  Column Row Layer    Maximum-Flux-Residual          L2-NORM 
          0                 1           2             4    7     1       0.6312742637E-01       4    7    1         0.3328960579E+01      0.6695052281E+01
          0                 2           2             4    7     1      -0.6140650400E-02       4    7    1        -0.3329010385E+00      0.6695048995E+00
          0                 3           2             4    7     1       0.4181548114E-03       4    7    1         0.2330303563E-01      0.4686511109E-01
          0                 4           1             4    7     1      -0.1663877442E-04       4    7    1        -0.9530956993E-03      0.1916769818E-02

    ------------------------------------------------
       NWT REQUIRED            4 OUTER ITERATIONS 
       AND A TOTAL OF          7 INNER ITERATIONS.
    ------------------------------------------------

 NO OUTPUT CONTROL FOR STRESS PERIOD   11   TIME STEP   14
 
 SOLVING FOR HEAD 
                                                   Max.-Head-Change                         Max.-Flux-Residual
  Residual-Control   Outer-Iter.   Inner-Iter.     Column Row Layer    Maximum-Head-Change  Column Row Layer    Maximum-Flux-Residual          L2-NORM 
          0                 1           2             4    7     1       0.6219659231E-01       4    7    1         0.3279940749E+01      0.6591859811E+01
          0                 2           2             4    7     1      -0.6050104064E-02       4    7    1        -0.3279989485E+00      0.6591860522E+00
          0                 3           2             4    7     1       0.4119889571E-03       4    7    1         0.2295989020E-01      0.4614285738E-01
          0                 4           1             4    7     1      -0.1639342945E-04       4    7    1        -0.9390610285E-03      0.1887238684E-02

    ------------------------------------------------
       NWT REQUIRED            4 OUTER ITERATIONS 
       AND A TOTAL OF          7 INNER ITERATIONS.
    ------------------------------------------------

 NO OUTPUT CONTROL FOR STRESS PERIOD   11   TIME STEP   15
 
 SOLVING FOR HEAD 
                                                   Max.-Head-Change                         Max.-Flux-Residual
  Residual-Control   Outer-Iter.   Inner-Iter.     Column Row Layer    Maximum-Head-Change  Column Row Layer    Maximum-Flux-Residual          L2-NORM 
          0                 1           2             4    7     1       0.6127852360E-01       4    7    1         0.3231576899E+01      0.6491185716E+01
          0                 2           2             4    7     1      -0.5960799450E-02       4    7    1        -0.3231624568E+00      0.6491189660E+00
          0                 3           2             4    7     1       0.4059076591E-03       4    7    1         0.2262133664E-01      0.4543816498E-01
          0                 4           1             4    7     1      -0.1615144896E-04       4    7    1        -0.9252141688E-03      0.1858412231E-02

    ------------------------------------------------
       NWT REQUIRED            4 OUTER ITERATIONS 
       AND A TOTAL OF          7 INNER ITERATIONS.
    ------------------------------------------------

 NO OUTPUT CONTROL FOR STRESS PERIOD   11   TIME STEP   16
 
 SOLVING FOR HEAD 
                                                   Max.-Head-Change                         Max.-Flux-Residual
  Residual-Control   Outer-Iter.   Inner-Iter.     Column Row Layer    Maximum-Head-Change  Column Row Layer    Maximum-Flux-Residual          L2-NORM 
          0                 1           2             4    7     1       0.6037343254E-01       4    7    1         0.3183882153E+01      0.6392931759E+01
          0                 2           2             4    7     1      -0.5872757215E-02       4    7    1        -0.3183928758E+00      0.6392938400E+00
          0                 3           2             4    7     1       0.3999123244E-03       4    7    1         0.2228746684E-01      0.4475043756E-01
          0                 4           1             4    7     1      -0.1591288857E-04       4    7    1        -0.9115588603E-03      0.1830306430E-02

    ------------------------------------------------
       NWT REQUIRED            4 OUTER ITERATIONS 
       AND A TOTAL OF          7 INNER ITERATIONS.
    ------------------------------------------------

 NO OUTPUT CONTROL FOR STRESS PERIOD   11   TIME STEP   17
 
 SOLVING FOR HEAD 
                                                   Max.-Head-Change                         Max.-Flux-Residual
  Residual-Control   Outer-Iter.   Inner-Iter.     Column Row Layer    Maximum-Head-Change  Column Row Layer    Maximum-Flux-Residual          L2-NORM 
          0                 1           2             4    7     1       0.5948123708E-01       4    7    1         0.3136852980E+01      0.6297017275E+01
          0                 2           2             4    7     1      -0.5785969378E-02       4    7    1        -0.3136898528E+00      0.6297026061E+00
          0                 3           2             4    7     1       0.3940024098E-03       4    7    1         0.2195825609E-01      0.4407906348E-01
          0                 4           1             4    7     1      -0.1567772744E-04       4    7    1        -0.8980941245E-03      0.1802821104E-02

    ------------------------------------------------
       NWT REQUIRED            4 OUTER ITERATIONS 
       AND A TOTAL OF          7 INNER ITERATIONS.
    ------------------------------------------------

 NO OUTPUT CONTROL FOR STRESS PERIOD   11   TIME STEP   18
 
 SOLVING FOR HEAD 
                                                   Max.-Head-Change                         Max.-Flux-Residual
  Residual-Control   Outer-Iter.   Inner-Iter.     Column Row Layer    Maximum-Head-Change  Column Row Layer    Maximum-Flux-Residual          L2-NORM 
          0                 1           2             4    7     1       0.5860210122E-01       4    7    1         0.3090499667E+01      0.6203354193E+01
          0                 2           2             4    7     1      -0.5700451897E-02       4    7    1        -0.3090544166E+00      0.6203365070E+00
          0                 3           2             4    7     1       0.3881790011E-03       4    7    1         0.2163377639E-01      0.4342346828E-01
          0                 4           1             4    7     1      -0.1544600850E-04       4    7    1        -0.8848228747E-03      0.1776016106E-02

    ------------------------------------------------
       NWT REQUIRED            4 OUTER ITERATIONS 
       AND A TOTAL OF          7 INNER ITERATIONS.
    ------------------------------------------------

 NO OUTPUT CONTROL FOR STRESS PERIOD   11   TIME STEP   19
 
 SOLVING FOR HEAD 
                                                   Max.-Head-Change                         Max.-Flux-Residual
  Residual-Control   Outer-Iter.   Inner-Iter.     Column Row Layer    Maximum-Head-Change  Column Row Layer    Maximum-Flux-Residual          L2-NORM 
          0                 1           2             4    7     1       0.5773602929E-01       4    7    1         0.3044823448E+01      0.6111872599E+01
          0                 2           2             4    7     1      -0.5617374233E-02       4    7    1        -0.3046694236E+00      0.6112478182E+00
          0                 3           2             4    7     1       0.3825216855E-03       4    7    1         0.2132682437E-01      0.4278725730E-01
          0                 4           1             4    7     1      -0.1522089893E-04       4    7    1        -0.8722685379E-03      0.1750007771E-02

    ------------------------------------------------
       NWT REQUIRED            4 OUTER ITERATIONS 
       AND A TOTAL OF          7 INNER ITERATIONS.
    ------------------------------------------------

 NO OUTPUT CONTROL FOR STRESS PERIOD   11   TIME STEP   20
 
 SOLVING FOR HEAD 
                                                   Max.-Head-Change                         Max.-Flux-Residual
  Residual-Control   Outer-Iter.   Inner-Iter.     Column Row Layer    Maximum-Head-Change  Column Row Layer    Maximum-Flux-Residual          L2-NORM 
          0                 1           2             4    7     1       0.5686005499E-01       4    7    1         0.2999762235E+01      0.6022456205E+01
          0                 2           2             4    7     1      -0.5531000085E-02       4    7    1        -0.2999808031E+00      0.6022470169E+00
          0                 3           2             4    7     1       0.3766399435E-03       4    7    1         0.2099862196E-01      0.4215721191E-01
          0                 4           1             4    7     1      -0.1498685845E-04       4    7    1        -0.8588450214E-03      0.1724230271E-02

    ------------------------------------------------
       NWT REQUIRED            4 OUTER ITERATIONS 
       AND A TOTAL OF          7 INNER ITERATIONS.
    ------------------------------------------------

 NO OUTPUT CONTROL FOR STRESS PERIOD   11   TIME STEP   21
 
 SOLVING FOR HEAD 
                                                   Max.-Head-Change                         Max.-Flux-Residual
  Residual-Control   Outer-Iter.   Inner-Iter.     Column Row Layer    Maximum-Head-Change  Column Row Layer    Maximum-Flux-Residual          L2-NORM 
          0                 1           2             4    7     1       0.5599980279E-01       4    7    1         0.2954311924E+01      0.5934935676E+01
          0                 2           2             4    7     1      -0.5447319269E-02       4    7    1        -0.2954356532E+00      0.5934950719E+00
          0                 3           2             4    7     1       0.3709416072E-03       4    7    1         0.2068046245E-01      0.4154461222E-01
          0                 4           1             4    7     1      -0.1476011648E-04       4    7    1        -0.8458322873E-03      0.1699271045E-02

    ------------------------------------------------
       NWT REQUIRED            4 OUTER ITERATIONS 
       AND A TOTAL OF          7 INNER ITERATIONS.
    ------------------------------------------------

 NO OUTPUT CONTROL FOR STRESS PERIOD   11   TIME STEP   22
 
 SOLVING FOR HEAD 
                                                   Max.-Head-Change                         Max.-Flux-Residual
  Residual-Control   Outer-Iter.   Inner-Iter.     Column Row Layer    Maximum-Head-Change  Column Row Layer    Maximum-Flux-Residual          L2-NORM 
          0                 1           2             4    7     1       0.5515393341E-01       4    7    1         0.2909614714E+01      0.5849386845E+01
          0                 2           2             4    7     1      -0.5365037541E-02       4    7    1        -0.2909658157E+00      0.5849402877E+00
          0                 3           2             4    7     1       0.3653385434E-03       4    7    1         0.2036757479E-01      0.4094578879E-01
          0                 4           1             4    7     1      -0.1453716521E-04       4    7    1        -0.8330351661E-03      0.1674682797E-02

    ------------------------------------------------
       NWT REQUIRED            4 OUTER ITERATIONS 
       AND A TOTAL OF          7 INNER ITERATIONS.
    ------------------------------------------------

 NO OUTPUT CONTROL FOR STRESS PERIOD   11   TIME STEP   23
 
 SOLVING FOR HEAD 
                                                   Max.-Head-Change                         Max.-Flux-Residual
  Residual-Control   Outer-Iter.   Inner-Iter.     Column Row Layer    Maximum-Head-Change  Column Row Layer    Maximum-Flux-Residual          L2-NORM 
          0                 1           2             4    7     1       0.5432229872E-01       4    7    1         0.2865663207E+01      0.5765746061E+01
          0                 2           2             4    7     1      -0.5284140494E-02       4    7    1        -0.2865705508E+00      0.5765762442E+00
          0                 3           2             4    7     1       0.3598297707E-03       4    7    1         0.2005990719E-01      0.4036030286E-01
          0                 4           1             4    7     1      -0.1431796594E-04       4    7    1        -0.8204515361E-03      0.1650731224E-02

    ------------------------------------------------
       NWT REQUIRED            4 OUTER ITERATIONS 
       AND A TOTAL OF          7 INNER ITERATIONS.
    ------------------------------------------------

 NO OUTPUT CONTROL FOR STRESS PERIOD   11   TIME STEP   24
 
 SOLVING FOR HEAD 
                                                   Max.-Head-Change                         Max.-Flux-Residual
  Residual-Control   Outer-Iter.   Inner-Iter.     Column Row Layer    Maximum-Head-Change  Column Row Layer    Maximum-Flux-Residual          L2-NORM 
          0                 1           2             4    7     1       0.5350487572E-01       4    7    1         0.2822457000E+01      0.5683962635E+01
          0                 2           2             4    7     1      -0.5204625893E-02       4    7    1        -0.2822498183E+00      0.5683979880E+00
          0                 3           2             4    7     1       0.3544151372E-03       4    7    1         0.1975745686E-01      0.3978783352E-01
          0                 4           1             4    7     1      -0.1410251292E-04       4    7    1        -0.8080812979E-03      0.1627324684E-02

    ------------------------------------------------
       NWT REQUIRED            4 OUTER ITERATIONS 
       AND A TOTAL OF          7 INNER ITERATIONS.
    ------------------------------------------------

 NO OUTPUT CONTROL FOR STRESS PERIOD   11   TIME STEP   25
 
 SOLVING FOR HEAD 
                                                   Max.-Head-Change                         Max.-Flux-Residual
  Residual-Control   Outer-Iter.   Inner-Iter.     Column Row Layer    Maximum-Head-Change  Column Row Layer    Maximum-Flux-Residual          L2-NORM 
          0                 1           2             4    7     1       0.5270149218E-01       4    7    1         0.2779987627E+01      0.5603974240E+01
          0                 2           2             4    7     1      -0.5126476982E-02       4    7    1        -0.2780027716E+00      0.5603991306E+00
          0                 3           2             4    7     1       0.3490935013E-03       4    7    1         0.1946016447E-01      0.3922793405E-01
          0                 4           1             4    7     1      -0.1389075977E-04       4    7    1        -0.7959220090E-03      0.1604449597E-02

    ------------------------------------------------
       NWT REQUIRED            4 OUTER ITERATIONS 
       AND A TOTAL OF          7 INNER ITERATIONS.
    ------------------------------------------------

 NO OUTPUT CONTROL FOR STRESS PERIOD   11   TIME STEP   26
 
 SOLVING FOR HEAD 
                                                   Max.-Head-Change                         Max.-Flux-Residual
  Residual-Control   Outer-Iter.   Inner-Iter.     Column Row Layer    Maximum-Head-Change  Column Row Layer    Maximum-Flux-Residual          L2-NORM 
          0                 1           2             4    7     1       0.5191196875E-01       4    7    1         0.2738246157E+01      0.5525720243E+01
          0                 2           2             4    7     1      -0.5049676317E-02       4    7    1        -0.2738285178E+00      0.5525737458E+00
          0                 3           2             4    7     1       0.3438636764E-03       4    7    1         0.1916796761E-01      0.3868015632E-01
          0                 4           1             4    7     1      -0.1368266007E-04       4    7    1        -0.7839711416E-03      0.1582028044E-02

    ------------------------------------------------
       NWT REQUIRED            4 OUTER ITERATIONS 
       AND A TOTAL OF          7 INNER ITERATIONS.
    ------------------------------------------------

 NO OUTPUT CONTROL FOR STRESS PERIOD   11   TIME STEP   27
 
 SOLVING FOR HEAD 
                                                   Max.-Head-Change                         Max.-Flux-Residual
  Residual-Control   Outer-Iter.   Inner-Iter.     Column Row Layer    Maximum-Head-Change  Column Row Layer    Maximum-Flux-Residual          L2-NORM 
          0                 1           2             4    7     1       0.5113625488E-01       4    7    1         0.2697230573E+01      0.5449156563E+01
          0                 2           2             4    7     1      -0.4974218981E-02       4    7    1        -0.2697268548E+00      0.5449173864E+00
          0                 3           2             4    7     1       0.3387253262E-03       4    7    1         0.1888085206E-01      0.3814420655E-01
          0                 4           1             4    7     1      -0.1347820012E-04       4    7    1        -0.7722280800E-03      0.1560118948E-02

    ------------------------------------------------
       NWT REQUIRED            4 OUTER ITERATIONS 
       AND A TOTAL OF          7 INNER ITERATIONS.
    ------------------------------------------------

 NO OUTPUT CONTROL FOR STRESS PERIOD   11   TIME STEP   28
 
 SOLVING FOR HEAD 
                                                   Max.-Head-Change                         Max.-Flux-Residual
  Residual-Control   Outer-Iter.   Inner-Iter.     Column Row Layer    Maximum-Head-Change  Column Row Layer    Maximum-Flux-Residual          L2-NORM 
          0                 1           2             4    7     1       0.5037388812E-01       4    7    1         0.2656916415E+01      0.5374219995E+01
          0                 2           2             4    7     1      -0.4900059991E-02       4    7    1        -0.2656953369E+00      0.5374237242E+00
          0                 3           2             4    7     1       0.3336753891E-03       4    7    1         0.1859864667E-01      0.3761965206E-01
          0                 4           1             4    7     1      -0.1327725848E-04       4    7    1        -0.7606858719E-03      0.1538647576E-02

    ------------------------------------------------
       NWT REQUIRED            4 OUTER ITERATIONS 
       AND A TOTAL OF          7 INNER ITERATIONS.
    ------------------------------------------------

 NO OUTPUT CONTROL FOR STRESS PERIOD   11   TIME STEP   29
 
 SOLVING FOR HEAD 
                                                   Max.-Head-Change                         Max.-Flux-Residual
  Residual-Control   Outer-Iter.   Inner-Iter.     Column Row Layer    Maximum-Head-Change  Column Row Layer    Maximum-Flux-Residual          L2-NORM 
          0                 1           2             4    7     1       0.4962494468E-01       4    7    1         0.2617308825E+01      0.5300875564E+01
          0                 2           2             4    7     1      -0.4827206758E-02       4    7    1        -0.2617344783E+00      0.5300892660E+00
          0                 3           2             4    7     1       0.3287143678E-03       4    7    1         0.1832138737E-01      0.3710624322E-01
          0                 4           1             4    7     1      -0.1307985471E-04       4    7    1        -0.7493459414E-03      0.1517645379E-02

    ------------------------------------------------
       NWT REQUIRED            4 OUTER ITERATIONS 
       AND A TOTAL OF          7 INNER ITERATIONS.
    ------------------------------------------------

 NO OUTPUT CONTROL FOR STRESS PERIOD   11   TIME STEP   30



 STREAM LISTING     PERIOD     11   STEP       30

 LAYER ROW COL. STREAM  RCH.  FLOW INTO     FLOW TO   FLOW OUT OF   OVRLND.     DIRECT     STREAM       STREAM     STREAM     STREAM   STREAMBED  STREAMBED
                SEG.NO.  NO.  STRM. RCH.    AQUIFER    STRM. RCH.    RUNOFF     PRECIP       ET          HEAD       DEPTH      WIDTH   CONDCTNC.   GRADIENT

   1    1    1     1     1    1.3125E+01  1.7336E-01   1.2952E+01  0.000E+00  0.000E+00  0.000E+00  1.09402E+03  9.718E-01  9.699E+00  4.365E-02  1.324E+00
   1    2    2     1     2    1.2952E+01  2.6707E-01   1.2684E+01  0.000E+00  0.000E+00  0.000E+00  1.08903E+03  9.671E-01  9.617E+00  6.732E-02  1.322E+00
   1    3    3     1     3    1.2684E+01  2.2641E-01   1.2458E+01  0.000E+00  0.000E+00  0.000E+00  1.08338E+03  9.616E-01  9.525E+00  5.715E-02  1.321E+00
   1    3    4     1     4    1.2458E+01  2.0737E-01   1.2251E+01  0.000E+00  0.000E+00  0.000E+00  1.07836E+03  9.568E-01  9.443E+00  5.241E-02  1.319E+00
   1    4    5     2     1    1.0251E+01  2.8870E-01   9.9620E+00  0.000E+00  0.000E+00  0.000E+00  1.07264E+03  7.013E-01  1.200E+01  7.800E-02  1.234E+00
   1    5    6     2     2    9.9620E+00  2.2144E-01   9.7406E+00  0.000E+00  0.000E+00  0.000E+00  1.06720E+03  6.906E-01  1.200E+01  6.000E-02  1.230E+00
   1    6    6     2     3    9.7406E+00  2.2088E-01   9.5197E+00  0.000E+00  0.000E+00  0.000E+00  1.06247E+03  6.813E-01  1.200E+01  6.000E-02  1.227E+00
   1    7    6     2     4    9.5197E+00  2.2031E-01   9.2994E+00  0.000E+00  0.000E+00  0.000E+00  1.05775E+03  6.719E-01  1.200E+01  6.000E-02  1.224E+00
   1    8    6     2     5    9.2994E+00  2.1974E-01   9.0796E+00  0.000E+00  0.000E+00  0.000E+00  1.05302E+03  6.624E-01  1.200E+01  6.000E-02  1.221E+00
   1    3    5     3     1    2.0000E+00  2.8252E-01   1.7175E+00  0.000E+00  0.000E+00  0.000E+00  1.07555E+03  1.909E+00  9.636E+00  7.227E-02  1.955E+00
   1    3    6     3     2    1.7175E+00  2.4905E-01   1.4684E+00  0.000E+00  0.000E+00  0.000E+00  1.07264E+03  1.727E+00  8.909E+00  6.682E-02  1.864E+00
   1    3    7     3     3    1.4684E+00  1.9718E-01   1.2712E+00  0.000E+00  0.000E+00  0.000E+00  1.06987E+03  1.555E+00  8.218E+00  5.547E-02  1.777E+00
   1    4    8     3     4    1.2712E+00  2.2567E-01   1.0456E+00  0.000E+00  0.000E+00  0.000E+00  1.06682E+03  1.364E+00  7.455E+00  6.709E-02  1.682E+00
   1    5    8     3     5    1.0456E+00  1.5790E-01   8.8768E-01  0.000E+00  0.000E+00  0.000E+00  1.06362E+03  1.164E+00  6.655E+00  4.991E-02  1.582E+00
   1    6    8     3     6    8.8768E-01  5.5980E-02   8.3170E-01  0.000E+00  0.000E+00  0.000E+00  1.06158E+03  1.036E+00  6.145E+00  1.844E-02  1.518E+00
   1    5   10     4     1    1.0000E+01  9.0919E-02   9.9091E+00  0.000E+00  0.000E+00  0.000E+00  1.07836E+03  6.368E-01  1.000E+01  2.500E-02  1.212E+00
   1    5    9     4     2    9.9091E+00  1.8158E-01   9.7275E+00  0.000E+00  0.000E+00  0.000E+00  1.07154E+03  6.315E-01  1.000E+01  5.000E-02  1.211E+00
   1    6    8     4     3    9.7275E+00  1.2689E-01   9.6006E+00  0.000E+00  0.000E+00  0.000E+00  1.06381E+03  6.256E-01  1.000E+01  3.500E-02  1.209E+00
   1    6    8     5     1    1.0432E+01  2.2686E-01   1.0205E+01  0.000E+00  0.000E+00  0.000E+00  1.05868E+03  6.790E-01  1.542E+01  6.166E-02  1.226E+00
   1    7    7     5     2    1.0205E+01  2.7894E-01   9.9265E+00  0.000E+00  0.000E+00  0.000E+00  1.05417E+03  6.732E-01  1.519E+01  7.594E-02  1.224E+00
   1    8    7     5     3    9.9265E+00  1.9221E-01   9.7343E+00  0.000E+00  0.000E+00  0.000E+00  1.04992E+03  6.676E-01  1.497E+01  5.241E-02  1.223E+00
   1    8    6     5     4    9.7343E+00  1.3577E-01   9.5985E+00  0.000E+00  0.000E+00  0.000E+00  1.04691E+03  6.637E-01  1.482E+01  3.706E-02  1.221E+00
   1    9    6     6     1    1.8678E+01  2.4127E-01   1.8437E+01  0.000E+00  0.000E+00  0.000E+00  1.04375E+03  1.021E+00  1.200E+01  6.000E-02  1.340E+00
   1   10    7     6     2    1.8437E+01  2.4079E-01   1.8196E+01  0.000E+00  0.000E+00  0.000E+00  1.03919E+03  1.013E+00  1.200E+01  6.000E-02  1.338E+00
   1   11    7     6     3    1.8196E+01  2.4031E-01   1.7956E+01  0.000E+00  0.000E+00  0.000E+00  1.03464E+03  1.005E+00  1.200E+01  6.000E-02  1.335E+00
   1   12    7     6     4    1.7956E+01  2.3983E-01   1.7716E+01  0.000E+00  0.000E+00  0.000E+00  1.03009E+03  9.971E-01  1.200E+01  6.000E-02  1.332E+00
   1   13    7     6     5    1.7716E+01  1.5409E-03   1.7714E+01  0.000E+00  0.000E+00  0.000E+00  1.02690E+03  9.931E-01  1.200E+01  2.400E-02  2.140E-02
   1   14    9     7     1    1.5000E+02  1.3690E+00   1.4863E+02  0.000E+00  0.000E+00  0.000E+00  1.03987E+03  2.288E+00  5.529E+01  5.593E-01  8.159E-01
   1   13    8     7     2    1.4863E+02  1.9195E+00   1.4671E+02  0.000E+00  0.000E+00  0.000E+00  1.03478E+03  2.279E+00  5.525E+01  6.148E-01  1.041E+00
   1   13    7     7     3    1.4671E+02  1.5920E+00   1.4512E+02  0.000E+00  0.000E+00  0.000E+00  1.02969E+03  2.270E+00  5.521E+01  5.584E-01  9.503E-01
   1   13    6     8     1    1.6283E+02  9.9703E-01   1.6184E+02  0.000E+00  0.000E+00  0.000E+00  1.02478E+03  2.902E+00  4.207E+01  4.287E-01  7.752E-01
   1   13    5     8     2    1.6184E+02  2.4867E-01   1.6159E+02  0.000E+00  0.000E+00  0.000E+00  1.01852E+03  2.897E+00  4.201E+01  4.281E-01  1.936E-01
   1   13    4     8     3    1.6159E+02 -2.1816E+00   1.6377E+02  0.000E+00  0.000E+00  0.000E+00  1.01228E+03  2.904E+00  4.211E+01  4.291E+00 -1.695E-01
   1   13    3     8     4    1.6377E+02 -3.5194E+00   1.6729E+02  0.000E+00  0.000E+00  0.000E+00  1.00605E+03  2.923E+00  4.238E+01  4.319E+00 -2.716E-01
   1   13    2     8     5    1.6729E+02 -2.5282E+00   1.6982E+02  0.000E+00  0.000E+00  0.000E+00  9.99818E+02  2.943E+00  4.267E+01  4.348E+00 -1.938E-01
   1   13    1     8     6    1.6982E+02 -1.9483E+00   1.7177E+02  0.000E+00  0.000E+00  0.000E+00  9.94832E+02  2.957E+00  4.288E+01  2.622E+00 -2.477E-01
   1    8    6     9     1    0.0000E+00  0.0000E+00   0.0000E+00  0.000E+00  0.000E+00  0.000E+00  1.07875E+03  0.000E+00  4.000E+00  0.000E+00  1.000E+00
   1    8    5     9     2    0.0000E+00  0.0000E+00   0.0000E+00  0.000E+00  0.000E+00  0.000E+00  1.07825E+03  0.000E+00  4.000E+00  0.000E+00  1.000E+00





UNSATURATED ZONE PACKAGE VOLUMETRIC BUDGET FOR  TIME STEP    30 STRESS PERIOD   11
  ------------------------------------------------------------------------------



     CUMULATIVE VOLUMES      L**3       RATES FOR THIS TIME STEP      L**3/T
     ------------------                 ------------------------

           IN:                                      IN:
           ---                                      ---
        INFILTRATION =   647540862.6112          INFILTRATION =           0.8475

          OUT:                                     OUT:
          ----                                     ----
              UZF ET =   426149828.7113                UZF ET =           0.8475
        UZF RECHARGE =       73224.0000          UZF RECHARGE =       0.0000E+00

            IN - OUT =   221317809.8999              IN - OUT =       0.0000E+00

          STORAGE:                                 STORAGE:
          --------                                 --------
      STORAGE CHANGE =   221318019.1384        STORAGE CHANGE =       8.5122E-14

 PERCENT DISCREPANCY IS DIFFERENCE BETWEEN IN-OUT MINUS CHANGE IN STORAGE
 DIVIDED BY THE AVERAGE OF IN AND OUT TIMES 100

 PERCENT DISCREPANCY =          -0.00     PERCENT DISCREPANCY =           0.00






1
  VOLUMETRIC BUDGET FOR AGRICULTURAL FIELDS AT  END OF TIME STEP   30, STRESS PERIOD  11
  ------------------------------------------------------------------------------

     CUMULATIVE VOLUMES      L**3       RATES FOR THIS TIME STEP      L**3/T
     ------------------                 ------------------------

           IN:                                      IN:
           ---                                      ---
               AG WELLS  =   405755808.0000                 AG WELLS  =           0.0000
      DIVERSION SEGMENTS =   219481136.0000        DIVERSION SEGMENTS =           0.0000
       IRRIGATION PONDS  =           0.0000         IRRIGATION PONDS  =           0.0000
           GW IRRIGATION =           0.0000             GW IRRIGATION =           0.0000
           SW IRRIGATION =           0.0000             SW IRRIGATION =           0.0000
        SYSTEM LOSSES GW =           0.0000          SYSTEM LOSSES GW =           0.0000
        SYSTEM LOSSES SW =           0.0000          SYSTEM LOSSES SW =           0.0000

                TOTAL IN =   625236928.0000                  TOTAL IN =           0.0000

          OUT:                                     OUT:
          ----                                     ----
               AG WELLS  =           0.0000                 AG WELLS  =           0.0000
      DIVERSION SEGMENTS =           0.0000        DIVERSION SEGMENTS =           0.0000
       IRRIGATION PONDS  =           0.0000         IRRIGATION PONDS  =           0.0000
           GW IRRIGATION =   405755808.0000             GW IRRIGATION =           0.0000
           SW IRRIGATION =   219485376.0000             SW IRRIGATION =           0.0000
        SYSTEM LOSSES GW =           0.0000          SYSTEM LOSSES GW =           0.0000
        SYSTEM LOSSES SW =           0.0000          SYSTEM LOSSES SW =           0.0000

               TOTAL OUT =   625241216.0000                 TOTAL OUT =           0.0000

                IN - OUT =       -4288.0000                  IN - OUT =           0.0000

     PERCENT DISCREPANCY =          -0.00         PERCENT DISCREPANCY =           0.00



1
  VOLUMETRIC BUDGET FOR ENTIRE MODEL AT END OF TIME STEP   30, STRESS PERIOD  11
  ------------------------------------------------------------------------------

     CUMULATIVE VOLUMES      L**3       RATES FOR THIS TIME STEP      L**3/T
     ------------------                 ------------------------

           IN:                                      IN:
           ---                                      ---
             STORAGE     =   571604288.0000               STORAGE     =          12.5637
       CONSTANT HEAD     =           0.0000         CONSTANT HEAD     =           0.0000
     HEAD DEP BOUNDS     =     7597067.5000       HEAD DEP BOUNDS     =           0.2880
      STREAM LEAKAGE     =   311437152.0000        STREAM LEAKAGE     =          11.5367
        UZF RECHARGE     =       73223.9531          UZF RECHARGE     =           0.0000
               GW ET     =           0.0000                 GW ET     =           0.0000
     SURFACE LEAKAGE     =           0.0000       SURFACE LEAKAGE     =           0.0000
           AG WELLS      =           0.0000             AG WELLS      =           0.0000

                TOTAL IN =   890711680.0000                  TOTAL IN =          24.3883

          OUT:                                     OUT:
          ----                                     ----
             STORAGE     =   204760384.0000               STORAGE     =          13.9229
       CONSTANT HEAD     =           0.0000         CONSTANT HEAD     =           0.0000
     HEAD DEP BOUNDS     =     7599930.5000       HEAD DEP BOUNDS     =           0.2879
      STREAM LEAKAGE     =   272597856.0000        STREAM LEAKAGE     =          10.1776
        UZF RECHARGE     =           0.0000          UZF RECHARGE     =           0.0000
               GW ET     =           0.0000                 GW ET     =           0.0000
     SURFACE LEAKAGE     =           0.0000       SURFACE LEAKAGE     =           0.0000
           AG WELLS      =   405755808.0000             AG WELLS      =           0.0000

               TOTAL OUT =   890713984.0000                 TOTAL OUT =          24.3883

                IN - OUT =       -2304.0000                  IN - OUT =       7.6294E-06

     PERCENT DISCREPANCY =          -0.00         PERCENT DISCREPANCY =           0.00






         TIME SUMMARY AT END OF TIME STEP   30 IN STRESS PERIOD   11
                    SECONDS     MINUTES      HOURS       DAYS        YEARS
                    -----------------------------------------------------------
   TIME STEP LENGTH  87667.      1461.1      24.352      1.0147     2.77799E-03
 STRESS PERIOD TIME 2.63000E+06  43833.      730.56      30.440     8.33397E-02
         TOTAL TIME 2.63864E+07 4.39773E+05  7329.5      305.40     0.83613    
1
1
                            STRESS PERIOD NO.   12, LENGTH =   2630000.    
                            -----------------------------------------------

                              NUMBER OF TIME STEPS =    30

                               MULTIPLIER FOR DELT =     1.000

                            INITIAL TIME STEP SIZE =   87666.66    

 REUSING NON-PARAMETER GHB CELLS FROM LAST STRESS PERIOD

      2 GHB CELLS

 REUSING STREAM SEGMENT DATA FROM LAST STRESS PERIOD



            AREAL INFILTRATION RATE
 READING ON UNIT   19 WITH FORMAT: (FREE)              

            1           2           3           4           5           6           7           8           9          10
 ........................................................................................................................
   1   1.0000E-10  2.0000E-10   0.000       0.000       0.000       0.000       0.000       0.000       0.000       0.000    
   2   2.0000E-10  1.0000E-10  2.0000E-10   0.000       0.000      8.0000E-10  8.0000E-10  5.0000E-10   0.000       0.000    
   3    0.000      5.0000E-10  1.0000E-10  1.0000E-10  8.0000E-10  8.0000E-10  5.0000E-10  5.0000E-10   0.000       0.000    
   4   8.0000E-10  5.0000E-10  1.0000E-10  1.0000E-10  1.0000E-10  1.0000E-10  1.0000E-10  1.0000E-10  2.0000E-10   0.000    
   5   8.0000E-10  5.0000E-10  1.0000E-10  1.0000E-10  1.0000E-10  1.0000E-10  1.0000E-10  1.0000E-10  1.0000E-10  1.0000E-10
   6   8.0000E-10  5.0000E-10  5.0000E-10  2.0000E-10  2.0000E-10  1.0000E-10  1.0000E-10  1.0000E-10  1.0000E-10  5.0000E-10
   7   8.0000E-10  5.0000E-10  5.0000E-10  2.0000E-10  2.0000E-10  1.0000E-10  1.0000E-10  2.0000E-10  2.0000E-10   0.000    
   8    0.000      5.0000E-10  5.0000E-10  2.0000E-10  2.0000E-10  1.0000E-10  1.0000E-10  2.0000E-10  5.0000E-10   0.000    
   9    0.000      5.0000E-10  5.0000E-10  2.0000E-10  2.0000E-10  1.0000E-10  1.0000E-10  2.0000E-10  5.0000E-10   0.000    
  10    0.000      5.0000E-10  5.0000E-10  2.0000E-10  2.0000E-10  1.0000E-10  1.0000E-10  2.0000E-10  5.0000E-10  8.0000E-10
  11    0.000      1.0000E-10  1.0000E-10  1.0000E-10  1.0000E-10  1.0000E-10  1.0000E-10  2.0000E-10  5.0000E-10   0.000    
  12   1.0000E-10  1.0000E-10  1.0000E-10  1.0000E-10  1.0000E-10  1.0000E-10  1.0000E-10  1.0000E-10  2.0000E-10   0.000    
  13   1.0000E-10  1.0000E-10  2.0000E-10  2.0000E-10  2.0000E-10  2.0000E-10  2.0000E-10  1.0000E-10  1.0000E-10   0.000    
  14    0.000      2.0000E-10  5.0000E-10  5.0000E-10  5.0000E-10  5.0000E-10  5.0000E-10  2.0000E-10  1.0000E-10   0.000    
  15    0.000       0.000      8.0000E-10  8.0000E-10  8.0000E-10  8.0000E-10   0.000       0.000       0.000       0.000    

                  ET RATE =  5.000000E-10

 USING ET EXTINCTION DEPTH FROM PREVIOUS STRESS PERIOD. CURRENT PERIOD IS:      12

 USING EXTINCTION WATER CONTENT FROM PREVIOUS STRESS PERIOD. CURRENT PERIOD IS:      12

 USING AIR ENTRY PRESSURE FROM PREVIOUS STRESS PERIOD. CURRENT PERIOD IS:      12

 USING ROOT PRESSURE HEAD FROM PREVIOUS STRESS PERIOD. CURRENT PERIOD IS:      12

 USING ROOT ACTIVITY FROM PREVIOUS STRESS PERIOD. CURRENT PERIOD IS:      12

 PROCESSING AG STRESS PERIOD DATA

 READING AG STRESS PERIOD DATA

 READING IRRIGATION SEGMENT

 READING IRRIGATION WELL

 READING SUPPLEMENTAL WELL

 NO IRRPOND OR REUSING IRRPOND DATA FROM LAST STRESS PERIOD

 END PROCESSING AG STRESS PERIOD DATA OPTIONS
 
 SOLVING FOR HEAD 
                                                   Max.-Head-Change                         Max.-Flux-Residual
  Residual-Control   Outer-Iter.   Inner-Iter.     Column Row Layer    Maximum-Head-Change  Column Row Layer    Maximum-Flux-Residual          L2-NORM 
          0                 1           2             4    7     1       0.4888932516E-01       4    7    1         0.2578404479E+01      0.5234183855E+01
          0                 2           2             4    7     1      -0.4755649616E-02       4    7    1        -0.2578439465E+00      0.5234528963E+00
          0                 3           2             4    7     1       0.3238416058E-03       4    7    1         0.1804905095E-01      0.3664368453E-01
          0                 4           1             4    7     1      -0.1288596280E-04       4    7    1        -0.7382073618E-03      0.1499084773E-02

    ------------------------------------------------
       NWT REQUIRED            4 OUTER ITERATIONS 
       AND A TOTAL OF          7 INNER ITERATIONS.
    ------------------------------------------------

 NO OUTPUT CONTROL FOR STRESS PERIOD   12   TIME STEP    1
 
 SOLVING FOR HEAD 
                                                   Max.-Head-Change                         Max.-Flux-Residual
  Residual-Control   Outer-Iter.   Inner-Iter.     Column Row Layer    Maximum-Head-Change  Column Row Layer    Maximum-Flux-Residual          L2-NORM 
          0                 1           2             4    7     1       0.4816654672E-01       4    7    1         0.2540176378E+01      0.5165065315E+01
          0                 2           2             4    7     1      -0.4685341596E-02       4    7    1        -0.2540210417E+00      0.5165015594E+00
          0                 3           2             4    7     1       0.3190539037E-03       4    7    1         0.1778144840E-01      0.3615450033E-01
          0                 4           1             4    7     1      -0.1269545528E-04       4    7    1        -0.7272623911E-03      0.1478681275E-02

    ------------------------------------------------
       NWT REQUIRED            4 OUTER ITERATIONS 
       AND A TOTAL OF          7 INNER ITERATIONS.
    ------------------------------------------------

 NO OUTPUT CONTROL FOR STRESS PERIOD   12   TIME STEP    2
 
 SOLVING FOR HEAD 
                                                   Max.-Head-Change                         Max.-Flux-Residual
  Residual-Control   Outer-Iter.   Inner-Iter.     Column Row Layer    Maximum-Head-Change  Column Row Layer    Maximum-Flux-Residual          L2-NORM 
          0                 1           2             4    7     1       0.4745653985E-01       4    7    1         0.2502621331E+01      0.5096004832E+01
          0                 2           2             4    7     1      -0.4616275936E-02       4    7    1        -0.2502654447E+00      0.5095961581E+00
          0                 3           2             4    7     1       0.3143508013E-03       4    7    1         0.1751855735E-01      0.3567121870E-01
          0                 4           1             4    7     1      -0.1250831456E-04       4    7    1        -0.7165101285E-03      0.1458934964E-02

    ------------------------------------------------
       NWT REQUIRED            4 OUTER ITERATIONS 
       AND A TOTAL OF          7 INNER ITERATIONS.
    ------------------------------------------------

 NO OUTPUT CONTROL FOR STRESS PERIOD   12   TIME STEP    3
 
 SOLVING FOR HEAD 
                                                   Max.-Head-Change                         Max.-Flux-Residual
  Residual-Control   Outer-Iter.   Inner-Iter.     Column Row Layer    Maximum-Head-Change  Column Row Layer    Maximum-Flux-Residual          L2-NORM 
          0                 1           2             4    7     1       0.4675923589E-01       4    7    1         0.2465735740E+01      0.5028387237E+01
          0                 2           2             4    7     1      -0.4548445958E-02       4    7    1        -0.2465767956E+00      0.5028349348E+00
          0                 3           2             4    7     1       0.3097318445E-03       4    7    1         0.1726035266E-01      0.3519795529E-01
          0                 4           1             4    7     1      -0.1232452210E-04       4    7    1        -0.7059495513E-03      0.1439597306E-02

    ------------------------------------------------
       NWT REQUIRED            4 OUTER ITERATIONS 
       AND A TOTAL OF          7 INNER ITERATIONS.
    ------------------------------------------------

 NO OUTPUT CONTROL FOR STRESS PERIOD   12   TIME STEP    4
 
 SOLVING FOR HEAD 
                                                   Max.-Head-Change                         Max.-Flux-Residual
  Residual-Control   Outer-Iter.   Inner-Iter.     Column Row Layer    Maximum-Head-Change  Column Row Layer    Maximum-Flux-Residual          L2-NORM 
          0                 1           2             4    7     1       0.4607441914E-01       4    7    1         0.2429508761E+01      0.4962155956E+01
          0                 2           2             4    7     1      -0.4481830678E-02       4    7    1        -0.2429540100E+00      0.4962122961E+00
          0                 3           2             4    7     1       0.3051956035E-03       4    7    1         0.1700675840E-01      0.3473442846E-01
          0                 4           1             4    7     1      -0.1214402090E-04       4    7    1        -0.6955775261E-03      0.1420623248E-02

    ------------------------------------------------
       NWT REQUIRED            4 OUTER ITERATIONS 
       AND A TOTAL OF          7 INNER ITERATIONS.
    ------------------------------------------------

 NO OUTPUT CONTROL FOR STRESS PERIOD   12   TIME STEP    5
 
 SOLVING FOR HEAD 
                                                   Max.-Head-Change                         Max.-Flux-Residual
  Residual-Control   Outer-Iter.   Inner-Iter.     Column Row Layer    Maximum-Head-Change  Column Row Layer    Maximum-Flux-Residual          L2-NORM 
          0                 1           2             4    7     1       0.4540173900E-01       4    7    1         0.2393921926E+01      0.4897267742E+01
          0                 2           2             4    7     1      -0.4416395993E-02       4    7    1        -0.2393952411E+00      0.4897238869E+00
          0                 3           2             4    7     1       0.3007397563E-03       4    7    1         0.1675764527E-01      0.3428026515E-01
          0                 4           1             4    7     1      -0.1196671853E-04       4    7    1        -0.6853887876E-03      0.1402023442E-02

    ------------------------------------------------
       NWT REQUIRED            4 OUTER ITERATIONS 
       AND A TOTAL OF          7 INNER ITERATIONS.
    ------------------------------------------------

 NO OUTPUT CONTROL FOR STRESS PERIOD   12   TIME STEP    6
 
 SOLVING FOR HEAD 
                                                   Max.-Head-Change                         Max.-Flux-Residual
  Residual-Control   Outer-Iter.   Inner-Iter.     Column Row Layer    Maximum-Head-Change  Column Row Layer    Maximum-Flux-Residual          L2-NORM 
          0                 1           2             4    7     1       0.4474112114E-01       4    7    1         0.2358971626E+01      0.4833690744E+01
          0                 2           2             4    7     1      -0.4352134670E-02       4    7    1        -0.2359001280E+00      0.4833665509E+00
          0                 3           2             4    7     1       0.2963638099E-03       4    7    1         0.1651298803E-01      0.3383530403E-01
          0                 4           1             4    7     1      -0.1179259528E-04       4    7    1        -0.6753822774E-03      0.1383852331E-02

    ------------------------------------------------
       NWT REQUIRED            4 OUTER ITERATIONS 
       AND A TOTAL OF          7 INNER ITERATIONS.
    ------------------------------------------------

 NO OUTPUT CONTROL FOR STRESS PERIOD   12   TIME STEP    7
 
 SOLVING FOR HEAD 
                                                   Max.-Head-Change                         Max.-Flux-Residual
  Residual-Control   Outer-Iter.   Inner-Iter.     Column Row Layer    Maximum-Head-Change  Column Row Layer    Maximum-Flux-Residual          L2-NORM 
          0                 1           2             4    7     1       0.4409235240E-01       4    7    1         0.2324646725E+01      0.4771383426E+01
          0                 2           2             4    7     1      -0.4289025977E-02       4    7    1        -0.2324675569E+00      0.4771361201E+00
          0                 3           2             4    7     1       0.2920663535E-03       4    7    1         0.1627270871E-01      0.3339918985E-01
          0                 4           1             4    7     1      -0.1162159522E-04       4    7    1        -0.6655548355E-03      0.1365998379E-02

    ------------------------------------------------
       NWT REQUIRED            4 OUTER ITERATIONS 
       AND A TOTAL OF          7 INNER ITERATIONS.
    ------------------------------------------------

 NO OUTPUT CONTROL FOR STRESS PERIOD   12   TIME STEP    8
 
 SOLVING FOR HEAD 
                                                   Max.-Head-Change                         Max.-Flux-Residual
  Residual-Control   Outer-Iter.   Inner-Iter.     Column Row Layer    Maximum-Head-Change  Column Row Layer    Maximum-Flux-Residual          L2-NORM 
          0                 1           2             4    7     1       0.4345534982E-01       4    7    1         0.2290943457E+01      0.4710314689E+01
          0                 2           2             4    7     1      -0.4227061842E-02       4    7    1        -0.2290971513E+00      0.4710295008E+00
          0                 3           2             4    7     1       0.2878468373E-03       4    7    1         0.1603678098E-01      0.3297175201E-01
          0                 4           1             4    7     1      -0.1145369681E-04       4    7    1        -0.6559053827E-03      0.1348522903E-02

    ------------------------------------------------
       NWT REQUIRED            4 OUTER ITERATIONS 
       AND A TOTAL OF          7 INNER ITERATIONS.
    ------------------------------------------------

 NO OUTPUT CONTROL FOR STRESS PERIOD   12   TIME STEP    9
 
 SOLVING FOR HEAD 
                                                   Max.-Head-Change                         Max.-Flux-Residual
  Residual-Control   Outer-Iter.   Inner-Iter.     Column Row Layer    Maximum-Head-Change  Column Row Layer    Maximum-Flux-Residual          L2-NORM 
          0                 1           2             4    7     1       0.4282976293E-01       4    7    1         0.2257842947E+01      0.4650452104E+01
          0                 2           2             4    7     1      -0.4166208174E-02       4    7    1        -0.2257870237E+00      0.4650442951E+00
          0                 3           2             4    7     1       0.2837029393E-03       4    7    1         0.1580507269E-01      0.3255289229E-01
          0                 4           1             4    7     1      -0.1128880738E-04       4    7    1        -0.6464284963E-03      0.1331585934E-02

    ------------------------------------------------
       NWT REQUIRED            4 OUTER ITERATIONS 
       AND A TOTAL OF          7 INNER ITERATIONS.
    ------------------------------------------------

 NO OUTPUT CONTROL FOR STRESS PERIOD   12   TIME STEP   10
 
 SOLVING FOR HEAD 
                                                   Max.-Head-Change                         Max.-Flux-Residual
  Residual-Control   Outer-Iter.   Inner-Iter.     Column Row Layer    Maximum-Head-Change  Column Row Layer    Maximum-Flux-Residual          L2-NORM 
          0                 1           2             4    7     1       0.4221551174E-01       4    7    1         0.2225341600E+01      0.4591755590E+01
          0                 2           2             4    7     1      -0.4106457190E-02       4    7    1        -0.2225368144E+00      0.4591739338E+00
          0                 3           2             4    7     1       0.2796341292E-03       4    7    1         0.1557755862E-01      0.3214194170E-01
          0                 4           1             4    7     1      -0.1112690551E-04       4    7    1        -0.6371231598E-03      0.1314602058E-02

    ------------------------------------------------
       NWT REQUIRED            4 OUTER ITERATIONS 
       AND A TOTAL OF          7 INNER ITERATIONS.
    ------------------------------------------------

 NO OUTPUT CONTROL FOR STRESS PERIOD   12   TIME STEP   11
 
 SOLVING FOR HEAD 
                                                   Max.-Head-Change                         Max.-Flux-Residual
  Residual-Control   Outer-Iter.   Inner-Iter.     Column Row Layer    Maximum-Head-Change  Column Row Layer    Maximum-Flux-Residual          L2-NORM 
          0                 1           2             4    7     1       0.4161237600E-01       4    7    1         0.2193427981E+01      0.4534192447E+01
          0                 2           2             4    7     1      -0.4047787467E-02       4    7    1        -0.2193453801E+00      0.4534179031E+00
          0                 3           2             4    7     1       0.2756389488E-03       4    7    1         0.1535415881E-01      0.3173900250E-01
          0                 4           1             4    7     1      -0.1096793340E-04       4    7    1        -0.6279860738E-03      0.1298108237E-02

    ------------------------------------------------
       NWT REQUIRED            4 OUTER ITERATIONS 
       AND A TOTAL OF          7 INNER ITERATIONS.
    ------------------------------------------------

 NO OUTPUT CONTROL FOR STRESS PERIOD   12   TIME STEP   12
 
 SOLVING FOR HEAD 
                                                   Max.-Head-Change                         Max.-Flux-Residual
  Residual-Control   Outer-Iter.   Inner-Iter.     Column Row Layer    Maximum-Head-Change  Column Row Layer    Maximum-Flux-Residual          L2-NORM 
          0                 1           2             4    7     1       0.4102014598E-01       4    7    1         0.2162090671E+01      0.4477741216E+01
          0                 2           2             4    7     1      -0.3990178207E-02       4    7    1        -0.2162115786E+00      0.4477482161E+00
          0                 3           2             4    7     1       0.2717159820E-03       4    7    1         0.1513479327E-01      0.3134215413E-01
          0                 4           1             4    7     1      -0.1081183500E-04       4    7    1        -0.6190140225E-03      0.1281883865E-02

    ------------------------------------------------
       NWT REQUIRED            4 OUTER ITERATIONS 
       AND A TOTAL OF          7 INNER ITERATIONS.
    ------------------------------------------------

 NO OUTPUT CONTROL FOR STRESS PERIOD   12   TIME STEP   13
 
 SOLVING FOR HEAD 
                                                   Max.-Head-Change                         Max.-Flux-Residual
  Residual-Control   Outer-Iter.   Inner-Iter.     Column Row Layer    Maximum-Head-Change  Column Row Layer    Maximum-Flux-Residual          L2-NORM 
          0                 1           2             4    7     1       0.4043860915E-01       4    7    1         0.2131318817E+01      0.4422381056E+01
          0                 2           2             4    7     1      -0.3933609922E-02       4    7    1        -0.2131343247E+00      0.4422370902E+00
          0                 3           2             4    7     1       0.2678639012E-03       4    7    1         0.1491938606E-01      0.3095639702E-01
          0                 4           1             4    7     1      -0.1065855676E-04       4    7    1        -0.6102038399E-03      0.1266102068E-02

    ------------------------------------------------
       NWT REQUIRED            4 OUTER ITERATIONS 
       AND A TOTAL OF          7 INNER ITERATIONS.
    ------------------------------------------------

 NO OUTPUT CONTROL FOR STRESS PERIOD   12   TIME STEP   14
 
 SOLVING FOR HEAD 
                                                   Max.-Head-Change                         Max.-Flux-Residual
  Residual-Control   Outer-Iter.   Inner-Iter.     Column Row Layer    Maximum-Head-Change  Column Row Layer    Maximum-Flux-Residual          L2-NORM 
          0                 1           2             4    7     1       0.3986755428E-01       4    7    1         0.2101101336E+01      0.4368118366E+01
          0                 2           2             4    7     1      -0.3878060878E-02       4    7    1        -0.2101125100E+00      0.4368109417E+00
          0                 3           2             4    7     1       0.2640812268E-03       4    7    1         0.1470785956E-01      0.3057655872E-01
          0                 4           1             4    7     1      -0.1050804078E-04       4    7    1        -0.6015524057E-03      0.1250557978E-02

    ------------------------------------------------
       NWT REQUIRED            4 OUTER ITERATIONS 
       AND A TOTAL OF          7 INNER ITERATIONS.
    ------------------------------------------------

 NO OUTPUT CONTROL FOR STRESS PERIOD   12   TIME STEP   15
 
 SOLVING FOR HEAD 
                                                   Max.-Head-Change                         Max.-Flux-Residual
  Residual-Control   Outer-Iter.   Inner-Iter.     Column Row Layer    Maximum-Head-Change  Column Row Layer    Maximum-Flux-Residual          L2-NORM 
          0                 1           2             4    7     1       0.3930691191E-01       4    7    1         0.2071434633E+01      0.4314880411E+01
          0                 2           2             4    7     1      -0.3823524715E-02       4    7    1        -0.2071457750E+00      0.4314867472E+00
          0                 3           2             4    7     1       0.2603675256E-03       4    7    1         0.1450018864E-01      0.3020387364E-01
          0                 4           1             4    7     1      -0.1036026898E-04       4    7    1        -0.5930586381E-03      0.1235337389E-02

    ------------------------------------------------
       NWT REQUIRED            4 OUTER ITERATIONS 
       AND A TOTAL OF          7 INNER ITERATIONS.
    ------------------------------------------------

 NO OUTPUT CONTROL FOR STRESS PERIOD   12   TIME STEP   16
 
 SOLVING FOR HEAD 
                                                   Max.-Head-Change                         Max.-Flux-Residual
  Residual-Control   Outer-Iter.   Inner-Iter.     Column Row Layer    Maximum-Head-Change  Column Row Layer    Maximum-Flux-Residual          L2-NORM 
          0                 1           2             4    7     1       0.3875633575E-01       4    7    1         0.2042300501E+01      0.4262637553E+01
          0                 2           2             4    7     1      -0.3769967745E-02       4    7    1        -0.2042322988E+00      0.4262630149E+00
          0                 3           2             4    7     1       0.2567205037E-03       4    7    1         0.1429624582E-01      0.2983822447E-01
          0                 4           1             4    7     1      -0.1021515075E-04       4    7    1        -0.5847173661E-03      0.1220588161E-02

    ------------------------------------------------
       NWT REQUIRED            4 OUTER ITERATIONS 
       AND A TOTAL OF          7 INNER ITERATIONS.
    ------------------------------------------------

 NO OUTPUT CONTROL FOR STRESS PERIOD   12   TIME STEP   17
 
 SOLVING FOR HEAD 
                                                   Max.-Head-Change                         Max.-Flux-Residual
  Residual-Control   Outer-Iter.   Inner-Iter.     Column Row Layer    Maximum-Head-Change  Column Row Layer    Maximum-Flux-Residual          L2-NORM 
          0                 1           2             4    7     1       0.3821589285E-01       4    7    1         0.2013702864E+01      0.4211364848E+01
          0                 2           2             4    7     1      -0.3717396492E-02       4    7    1        -0.2013724740E+00      0.4211358157E+00
          0                 3           2             4    7     1       0.2531406049E-03       4    7    1         0.1409605857E-01      0.2947933997E-01
          0                 4           1             4    7     1      -0.1007270314E-04       4    7    1        -0.5765296999E-03      0.1205698379E-02

    ------------------------------------------------
       NWT REQUIRED            4 OUTER ITERATIONS 
       AND A TOTAL OF          7 INNER ITERATIONS.
    ------------------------------------------------

 NO OUTPUT CONTROL FOR STRESS PERIOD   12   TIME STEP   18
 
 SOLVING FOR HEAD 
                                                   Max.-Head-Change                         Max.-Flux-Residual
  Residual-Control   Outer-Iter.   Inner-Iter.     Column Row Layer    Maximum-Head-Change  Column Row Layer    Maximum-Flux-Residual          L2-NORM 
          0                 1           2             4    7     1       0.3768510553E-01       4    7    1         0.1985616027E+01      0.4161041426E+01
          0                 2           2             4    7     1      -0.3665764487E-02       4    7    1        -0.1985637309E+00      0.4161035527E+00
          0                 3           2             4    7     1       0.2496246651E-03       4    7    1         0.1389944702E-01      0.2912709653E-01
          0                 4           1             4    7     1      -0.9932800426E-05       4    7    1        -0.5684882726E-03      0.1191293137E-02

    ------------------------------------------------
       NWT REQUIRED            4 OUTER ITERATIONS 
       AND A TOTAL OF          7 INNER ITERATIONS.
    ------------------------------------------------

 NO OUTPUT CONTROL FOR STRESS PERIOD   12   TIME STEP   19
 
 SOLVING FOR HEAD 
                                                   Max.-Head-Change                         Max.-Flux-Residual
  Residual-Control   Outer-Iter.   Inner-Iter.     Column Row Layer    Maximum-Head-Change  Column Row Layer    Maximum-Flux-Residual          L2-NORM 
          0                 1           2             4    7     1       0.3716390866E-01       4    7    1         0.1958037102E+01      0.4111630604E+01
          0                 2           2             4    7     1      -0.3615065397E-02       4    7    1        -0.1958057807E+00      0.4111625120E+00
          0                 3           2             4    7     1       0.2461722537E-03       4    7    1         0.1370639098E-01      0.2878122266E-01
          0                 4           1             4    7     1      -0.9795425799E-05       4    7    1        -0.5605922672E-03      0.1177144316E-02

    ------------------------------------------------
       NWT REQUIRED            4 OUTER ITERATIONS 
       AND A TOTAL OF          7 INNER ITERATIONS.
    ------------------------------------------------

 NO OUTPUT CONTROL FOR STRESS PERIOD   12   TIME STEP   20
 
 SOLVING FOR HEAD 
                                                   Max.-Head-Change                         Max.-Flux-Residual
  Residual-Control   Outer-Iter.   Inner-Iter.     Column Row Layer    Maximum-Head-Change  Column Row Layer    Maximum-Flux-Residual          L2-NORM 
          0                 1           2             4    7     1       0.3665224218E-01       4    7    1         0.1930962715E+01      0.4063133740E+01
          0                 2           2             4    7     1      -0.3565293380E-02       4    7    1        -0.1930982860E+00      0.4063103286E+00
          0                 3           2             4    7     1       0.2427829718E-03       4    7    1         0.1351686680E-01      0.2844184005E-01
          0                 4           1             4    7     1      -0.9660563140E-05       4    7    1        -0.5528407048E-03      0.1163263342E-02

    ------------------------------------------------
       NWT REQUIRED            4 OUTER ITERATIONS 
       AND A TOTAL OF          7 INNER ITERATIONS.
    ------------------------------------------------

 NO OUTPUT CONTROL FOR STRESS PERIOD   12   TIME STEP   21
 
 SOLVING FOR HEAD 
                                                   Max.-Head-Change                         Max.-Flux-Residual
  Residual-Control   Outer-Iter.   Inner-Iter.     Column Row Layer    Maximum-Head-Change  Column Row Layer    Maximum-Flux-Residual          L2-NORM 
          0                 1           2             4    7     1       0.3614976635E-01       4    7    1         0.1904375163E+01      0.4015500176E+01
          0                 2           2             4    7     1      -0.3516415340E-02       4    7    1        -0.1904394764E+00      0.4015213587E+00
          0                 3           2             4    7     1       0.2394545661E-03       4    7    1         0.1333075056E-01      0.2810635132E-01
          0                 4           1             4    7     1      -0.9528122651E-05       4    7    1        -0.5452285425E-03      0.1149545263E-02

    ------------------------------------------------
       NWT REQUIRED            4 OUTER ITERATIONS 
       AND A TOTAL OF          7 INNER ITERATIONS.
    ------------------------------------------------

 NO OUTPUT CONTROL FOR STRESS PERIOD   12   TIME STEP   22
 
 SOLVING FOR HEAD 
                                                   Max.-Head-Change                         Max.-Flux-Residual
  Residual-Control   Outer-Iter.   Inner-Iter.     Column Row Layer    Maximum-Head-Change  Column Row Layer    Maximum-Flux-Residual          L2-NORM 
          0                 1           2             4    7     1       0.3565629237E-01       4    7    1         0.1878264127E+01      0.3968755455E+01
          0                 2           2             4    7     1      -0.3468413045E-02       4    7    1        -0.1878283199E+00      0.3968751314E+00
          0                 3           2             4    7     1       0.2361857956E-03       4    7    1         0.1314797003E-01      0.2778112099E-01
          0                 4           1             4    7     1      -0.9398055288E-05       4    7    1        -0.5377528073E-03      0.1136232477E-02

    ------------------------------------------------
       NWT REQUIRED            4 OUTER ITERATIONS 
       AND A TOTAL OF          7 INNER ITERATIONS.
    ------------------------------------------------

 NO OUTPUT CONTROL FOR STRESS PERIOD   12   TIME STEP   23
 
 SOLVING FOR HEAD 
                                                   Max.-Head-Change                         Max.-Flux-Residual
  Residual-Control   Outer-Iter.   Inner-Iter.     Column Row Layer    Maximum-Head-Change  Column Row Layer    Maximum-Flux-Residual          L2-NORM 
          0                 1           2             4    7     1       0.3517176605E-01       4    7    1         0.1852627109E+01      0.3922847088E+01
          0                 2           2             4    7     1      -0.3421281093E-02       4    7    1        -0.1852645667E+00      0.3922843027E+00
          0                 3           2             4    7     1       0.2329762917E-03       4    7    1         0.1296850771E-01      0.2745978734E-01
          0                 4           1             4    7     1      -0.9270345968E-05       4    7    1        -0.5304127951E-03      0.1123108754E-02

    ------------------------------------------------
       NWT REQUIRED            4 OUTER ITERATIONS 
       AND A TOTAL OF          7 INNER ITERATIONS.
    ------------------------------------------------

 NO OUTPUT CONTROL FOR STRESS PERIOD   12   TIME STEP   24
 
 SOLVING FOR HEAD 
                                                   Max.-Head-Change                         Max.-Flux-Residual
  Residual-Control   Outer-Iter.   Inner-Iter.     Column Row Layer    Maximum-Head-Change  Column Row Layer    Maximum-Flux-Residual          L2-NORM 
          0                 1           2             4    7     1       0.3469599067E-01       4    7    1         0.1827454009E+01      0.3877745970E+01
          0                 2           2             4    7     1      -0.3375000390E-02       4    7    1        -0.1827472069E+00      0.3877742081E+00
          0                 3           2             4    7     1       0.2298247543E-03       4    7    1         0.1279229291E-01      0.2714407475E-01
          0                 4           1             4    7     1      -0.9144943459E-05       4    7    1        -0.5232055917E-03      0.1110191494E-02

    ------------------------------------------------
       NWT REQUIRED            4 OUTER ITERATIONS 
       AND A TOTAL OF          7 INNER ITERATIONS.
    ------------------------------------------------

 NO OUTPUT CONTROL FOR STRESS PERIOD   12   TIME STEP   25
 
 SOLVING FOR HEAD 
                                                   Max.-Head-Change                         Max.-Flux-Residual
  Residual-Control   Outer-Iter.   Inner-Iter.     Column Row Layer    Maximum-Head-Change  Column Row Layer    Maximum-Flux-Residual          L2-NORM 
          0                 1           2             4    7     1       0.3422878365E-01       4    7    1         0.1802734628E+01      0.3833445988E+01
          0                 2           2             4    7     1      -0.3329553176E-02       4    7    1        -0.1802752203E+00      0.3833442316E+00
          0                 3           2             4    7     1       0.2267299746E-03       4    7    1         0.1261925424E-01      0.2683397644E-01
          0                 4           1             4    7     1      -0.9021799063E-05       4    7    1        -0.5161282959E-03      0.1097509128E-02

    ------------------------------------------------
       NWT REQUIRED            4 OUTER ITERATIONS 
       AND A TOTAL OF          7 INNER ITERATIONS.
    ------------------------------------------------

 NO OUTPUT CONTROL FOR STRESS PERIOD   12   TIME STEP   26
 
 SOLVING FOR HEAD 
                                                   Max.-Head-Change                         Max.-Flux-Residual
  Residual-Control   Outer-Iter.   Inner-Iter.     Column Row Layer    Maximum-Head-Change  Column Row Layer    Maximum-Flux-Residual          L2-NORM 
          0                 1           2             4    7     1       0.3376995893E-01       4    7    1         0.1778459497E+01      0.3789918601E+01
          0                 2           2             4    7     1      -0.3284921351E-02       4    7    1        -0.1778476601E+00      0.3789914965E+00
          0                 3           2             4    7     1       0.2236907194E-03       4    7    1         0.1244932540E-01      0.2652928632E-01
          0                 4           1             4    7     1      -0.8900864197E-05       4    7    1        -0.5091781884E-03      0.1085037566E-02

    ------------------------------------------------
       NWT REQUIRED            4 OUTER ITERATIONS 
       AND A TOTAL OF          7 INNER ITERATIONS.
    ------------------------------------------------

 NO OUTPUT CONTROL FOR STRESS PERIOD   12   TIME STEP   27
 
 SOLVING FOR HEAD 
                                                   Max.-Head-Change                         Max.-Flux-Residual
  Residual-Control   Outer-Iter.   Inner-Iter.     Column Row Layer    Maximum-Head-Change  Column Row Layer    Maximum-Flux-Residual          L2-NORM 
          0                 1           2             4    7     1       0.3331933774E-01       4    7    1         0.1754618969E+01      0.3747156042E+01
          0                 2           2             4    7     1      -0.3241087518E-02       4    7    1        -0.1754635617E+00      0.3747067919E+00
          0                 3           2             4    7     1       0.2207058045E-03       4    7    1         0.1228243887E-01      0.2622937006E-01
          0                 4           1             4    7     1      -0.8782091656E-05       4    7    1        -0.5023525232E-03      0.1072782706E-02

    ------------------------------------------------
       NWT REQUIRED            4 OUTER ITERATIONS 
       AND A TOTAL OF          7 INNER ITERATIONS.
    ------------------------------------------------

 NO OUTPUT CONTROL FOR STRESS PERIOD   12   TIME STEP   28
 
 SOLVING FOR HEAD 
                                                   Max.-Head-Change                         Max.-Flux-Residual
  Residual-Control   Outer-Iter.   Inner-Iter.     Column Row Layer    Maximum-Head-Change  Column Row Layer    Maximum-Flux-Residual          L2-NORM 
          0                 1           2             4    7     1       0.3287674355E-01       4    7    1         0.1731203778E+01      0.3705139072E+01
          0                 2           2             4    7     1      -0.3198034530E-02       4    7    1        -0.1731219982E+00      0.3705135704E+00
          0                 3           2             4    7     1       0.2177740619E-03       4    7    1         0.1211852978E-01      0.2593583270E-01
          0                 4           1             4    7     1      -0.8665434701E-05       4    7    1        -0.4956486200E-03      0.1060768584E-02

    ------------------------------------------------
       NWT REQUIRED            4 OUTER ITERATIONS 
       AND A TOTAL OF          7 INNER ITERATIONS.
    ------------------------------------------------

 NO OUTPUT CONTROL FOR STRESS PERIOD   12   TIME STEP   29
 
 SOLVING FOR HEAD 
                                                   Max.-Head-Change                         Max.-Flux-Residual
  Residual-Control   Outer-Iter.   Inner-Iter.     Column Row Layer    Maximum-Head-Change  Column Row Layer    Maximum-Flux-Residual          L2-NORM 
          0                 1           2             4    7     1       0.3244213145E-01       4    7    1         0.1708212069E+01      0.3664327636E+01
          0                 2           2             4    7     1      -0.3155757990E-02       4    7    1        -0.1708227843E+00      0.3664319298E+00
          0                 3           2             4    7     1       0.2148951926E-03       4    7    1         0.1195758514E-01      0.2565010333E-01
          0                 4           1             4    7     1      -0.8550881702E-05       4    7    1        -0.4890659832E-03      0.1049083508E-02

    ------------------------------------------------
       NWT REQUIRED            4 OUTER ITERATIONS 
       AND A TOTAL OF          7 INNER ITERATIONS.
    ------------------------------------------------

 NO OUTPUT CONTROL FOR STRESS PERIOD   12   TIME STEP   30



 STREAM LISTING     PERIOD     12   STEP       30

 LAYER ROW COL. STREAM  RCH.  FLOW INTO     FLOW TO   FLOW OUT OF   OVRLND.     DIRECT     STREAM       STREAM     STREAM     STREAM   STREAMBED  STREAMBED
                SEG.NO.  NO.  STRM. RCH.    AQUIFER    STRM. RCH.    RUNOFF     PRECIP       ET          HEAD       DEPTH      WIDTH   CONDCTNC.   GRADIENT

   1    1    1     1     1    9.5403E+00  1.4421E-01   9.3961E+00  0.000E+00  0.000E+00  0.000E+00  1.09393E+03  8.839E-01  8.251E+00  3.713E-02  1.295E+00
   1    2    2     1     2    9.3961E+00  2.2163E-01   9.1745E+00  0.000E+00  0.000E+00  0.000E+00  1.08894E+03  8.782E-01  8.164E+00  5.715E-02  1.293E+00
   1    3    3     1     3    9.1745E+00  1.8736E-01   8.9871E+00  0.000E+00  0.000E+00  0.000E+00  1.08329E+03  8.718E-01  8.065E+00  4.839E-02  1.291E+00
   1    3    4     1     4    8.9871E+00  1.7119E-01   8.8160E+00  0.000E+00  0.000E+00  0.000E+00  1.07827E+03  8.661E-01  7.978E+00  4.428E-02  1.289E+00
   1    4    5     2     1    6.8160E+00  2.7666E-01   6.5393E+00  0.000E+00  0.000E+00  0.000E+00  1.07248E+03  5.469E-01  1.200E+01  7.800E-02  1.182E+00
   1    5    6     2     2    6.5393E+00  2.1209E-01   6.3272E+00  0.000E+00  0.000E+00  0.000E+00  1.06704E+03  5.348E-01  1.200E+01  6.000E-02  1.178E+00
   1    6    6     2     3    6.3272E+00  2.1145E-01   6.1158E+00  0.000E+00  0.000E+00  0.000E+00  1.06232E+03  5.242E-01  1.200E+01  6.000E-02  1.175E+00
   1    7    6     2     4    6.1158E+00  2.1081E-01   5.9050E+00  0.000E+00  0.000E+00  0.000E+00  1.05759E+03  5.134E-01  1.200E+01  6.000E-02  1.171E+00
   1    8    6     2     5    5.9050E+00  2.1015E-01   5.6948E+00  0.000E+00  0.000E+00  0.000E+00  1.05286E+03  5.026E-01  1.200E+01  6.000E-02  1.168E+00
   1    3    5     3     1    2.0000E+00  2.8252E-01   1.7175E+00  0.000E+00  0.000E+00  0.000E+00  1.07555E+03  1.909E+00  9.636E+00  7.227E-02  1.955E+00
   1    3    6     3     2    1.7175E+00  2.4905E-01   1.4684E+00  0.000E+00  0.000E+00  0.000E+00  1.07264E+03  1.727E+00  8.909E+00  6.682E-02  1.864E+00
   1    3    7     3     3    1.4684E+00  1.9718E-01   1.2712E+00  0.000E+00  0.000E+00  0.000E+00  1.06987E+03  1.555E+00  8.218E+00  5.547E-02  1.777E+00
   1    4    8     3     4    1.2712E+00  2.2567E-01   1.0456E+00  0.000E+00  0.000E+00  0.000E+00  1.06682E+03  1.364E+00  7.455E+00  6.709E-02  1.682E+00
   1    5    8     3     5    1.0456E+00  1.5790E-01   8.8768E-01  0.000E+00  0.000E+00  0.000E+00  1.06362E+03  1.164E+00  6.655E+00  4.991E-02  1.582E+00
   1    6    8     3     6    8.8768E-01  5.5980E-02   8.3170E-01  0.000E+00  0.000E+00  0.000E+00  1.06158E+03  1.036E+00  6.145E+00  1.844E-02  1.518E+00
   1    5   10     4     1    1.0000E+01  9.0919E-02   9.9091E+00  0.000E+00  0.000E+00  0.000E+00  1.07836E+03  6.368E-01  1.000E+01  2.500E-02  1.212E+00
   1    5    9     4     2    9.9091E+00  1.8158E-01   9.7275E+00  0.000E+00  0.000E+00  0.000E+00  1.07154E+03  6.315E-01  1.000E+01  5.000E-02  1.211E+00
   1    6    8     4     3    9.7275E+00  1.2689E-01   9.6006E+00  0.000E+00  0.000E+00  0.000E+00  1.06381E+03  6.256E-01  1.000E+01  3.500E-02  1.209E+00
   1    6    8     5     1    1.0432E+01  2.2686E-01   1.0205E+01  0.000E+00  0.000E+00  0.000E+00  1.05868E+03  6.790E-01  1.542E+01  6.166E-02  1.226E+00
   1    7    7     5     2    1.0205E+01  2.7894E-01   9.9265E+00  0.000E+00  0.000E+00  0.000E+00  1.05417E+03  6.732E-01  1.519E+01  7.594E-02  1.224E+00
   1    8    7     5     3    9.9265E+00  1.9221E-01   9.7343E+00  0.000E+00  0.000E+00  0.000E+00  1.04992E+03  6.676E-01  1.497E+01  5.241E-02  1.223E+00
   1    8    6     5     4    9.7343E+00  1.3577E-01   9.5985E+00  0.000E+00  0.000E+00  0.000E+00  1.04691E+03  6.637E-01  1.482E+01  3.706E-02  1.221E+00
   1    9    6     6     1    1.5293E+01  2.3430E-01   1.5059E+01  0.000E+00  0.000E+00  0.000E+00  1.04363E+03  9.050E-01  1.200E+01  6.000E-02  1.302E+00
   1   10    7     6     2    1.5059E+01  2.3380E-01   1.4825E+01  0.000E+00  0.000E+00  0.000E+00  1.03908E+03  8.966E-01  1.200E+01  6.000E-02  1.299E+00
   1   11    7     6     3    1.4825E+01  2.3329E-01   1.4592E+01  0.000E+00  0.000E+00  0.000E+00  1.03452E+03  8.882E-01  1.200E+01  6.000E-02  1.296E+00
   1   12    7     6     4    1.4592E+01  2.3278E-01   1.4359E+01  0.000E+00  0.000E+00  0.000E+00  1.02997E+03  8.797E-01  1.200E+01  6.000E-02  1.293E+00
   1   13    7     6     5    1.4359E+01 -1.0224E-02   1.4369E+01  0.000E+00  0.000E+00  0.000E+00  1.02678E+03  8.757E-01  1.200E+01  2.400E-01 -1.420E-02
   1   14    9     7     1    1.5000E+02  1.3693E+00   1.4863E+02  0.000E+00  0.000E+00  0.000E+00  1.03987E+03  2.288E+00  5.529E+01  5.593E-01  8.161E-01
   1   13    8     7     2    1.4863E+02  1.9203E+00   1.4671E+02  0.000E+00  0.000E+00  0.000E+00  1.03478E+03  2.279E+00  5.525E+01  6.148E-01  1.041E+00
   1   13    7     7     3    1.4671E+02  1.5979E+00   1.4511E+02  0.000E+00  0.000E+00  0.000E+00  1.02969E+03  2.269E+00  5.521E+01  5.584E-01  9.538E-01
   1   13    6     8     1    1.5948E+02  9.8979E-01   1.5849E+02  0.000E+00  0.000E+00  0.000E+00  1.02475E+03  2.879E+00  4.175E+01  4.254E-01  7.756E-01
   1   13    5     8     2    1.5849E+02  2.4991E-01   1.5824E+02  0.000E+00  0.000E+00  0.000E+00  1.01850E+03  2.875E+00  4.168E+01  4.248E-01  1.961E-01
   1   13    4     8     3    1.5824E+02 -2.1669E+00   1.6041E+02  0.000E+00  0.000E+00  0.000E+00  1.01226E+03  2.881E+00  4.178E+01  4.257E+00 -1.697E-01
   1   13    3     8     4    1.6041E+02 -3.5262E+00   1.6394E+02  0.000E+00  0.000E+00  0.000E+00  1.00603E+03  2.900E+00  4.206E+01  4.286E+00 -2.743E-01
   1   13    2     8     5    1.6394E+02 -2.5547E+00   1.6649E+02  0.000E+00  0.000E+00  0.000E+00  9.99796E+02  2.921E+00  4.235E+01  4.316E+00 -1.973E-01
   1   13    1     8     6    1.6649E+02 -1.9759E+00   1.6847E+02  0.000E+00  0.000E+00  0.000E+00  9.94811E+02  2.936E+00  4.257E+01  2.603E+00 -2.531E-01
   1    8    6     9     1    0.0000E+00  0.0000E+00   0.0000E+00  0.000E+00  0.000E+00  0.000E+00  1.07875E+03  0.000E+00  4.000E+00  0.000E+00  1.000E+00
   1    8    5     9     2    0.0000E+00  0.0000E+00   0.0000E+00  0.000E+00  0.000E+00  0.000E+00  1.07825E+03  0.000E+00  4.000E+00  0.000E+00  1.000E+00





UNSATURATED ZONE PACKAGE VOLUMETRIC BUDGET FOR  TIME STEP    30 STRESS PERIOD   12
  ------------------------------------------------------------------------------



     CUMULATIVE VOLUMES      L**3       RATES FOR THIS TIME STEP      L**3/T
     ------------------                 ------------------------

           IN:                                      IN:
           ---                                      ---
        INFILTRATION =   649769787.4839          INFILTRATION =           0.8475

          OUT:                                     OUT:
          ----                                     ----
              UZF ET =   428122329.1092                UZF ET =           0.7500
        UZF RECHARGE =       73224.0000          UZF RECHARGE =       0.0000E+00

            IN - OUT =   221574234.3748              IN - OUT =       9.7500E-02

          STORAGE:                                 STORAGE:
          --------                                 --------
      STORAGE CHANGE =   221574443.6351        STORAGE CHANGE =       9.7500E-02

 PERCENT DISCREPANCY IS DIFFERENCE BETWEEN IN-OUT MINUS CHANGE IN STORAGE
 DIVIDED BY THE AVERAGE OF IN AND OUT TIMES 100

 PERCENT DISCREPANCY =          -0.00     PERCENT DISCREPANCY =           0.00






1
  VOLUMETRIC BUDGET FOR AGRICULTURAL FIELDS AT  END OF TIME STEP   30, STRESS PERIOD  12
  ------------------------------------------------------------------------------

     CUMULATIVE VOLUMES      L**3       RATES FOR THIS TIME STEP      L**3/T
     ------------------                 ------------------------

           IN:                                      IN:
           ---                                      ---
               AG WELLS  =   405755808.0000                 AG WELLS  =           0.0000
      DIVERSION SEGMENTS =   219481136.0000        DIVERSION SEGMENTS =           0.0000
       IRRIGATION PONDS  =           0.0000         IRRIGATION PONDS  =           0.0000
           GW IRRIGATION =           0.0000             GW IRRIGATION =           0.0000
           SW IRRIGATION =           0.0000             SW IRRIGATION =           0.0000
        SYSTEM LOSSES GW =           0.0000          SYSTEM LOSSES GW =           0.0000
        SYSTEM LOSSES SW =           0.0000          SYSTEM LOSSES SW =           0.0000

                TOTAL IN =   625236928.0000                  TOTAL IN =           0.0000

          OUT:                                     OUT:
          ----                                     ----
               AG WELLS  =           0.0000                 AG WELLS  =           0.0000
      DIVERSION SEGMENTS =           0.0000        DIVERSION SEGMENTS =           0.0000
       IRRIGATION PONDS  =           0.0000         IRRIGATION PONDS  =           0.0000
           GW IRRIGATION =   405755808.0000             GW IRRIGATION =           0.0000
           SW IRRIGATION =   219485376.0000             SW IRRIGATION =           0.0000
        SYSTEM LOSSES GW =           0.0000          SYSTEM LOSSES GW =           0.0000
        SYSTEM LOSSES SW =           0.0000          SYSTEM LOSSES SW =           0.0000

               TOTAL OUT =   625241216.0000                 TOTAL OUT =           0.0000

                IN - OUT =       -4288.0000                  IN - OUT =           0.0000

     PERCENT DISCREPANCY =          -0.00         PERCENT DISCREPANCY =           0.00



1
  VOLUMETRIC BUDGET FOR ENTIRE MODEL AT END OF TIME STEP   30, STRESS PERIOD  12
  ------------------------------------------------------------------------------

     CUMULATIVE VOLUMES      L**3       RATES FOR THIS TIME STEP      L**3/T
     ------------------                 ------------------------

           IN:                                      IN:
           ---                                      ---
             STORAGE     =   600687808.0000               STORAGE     =           9.6008
       CONSTANT HEAD     =           0.0000         CONSTANT HEAD     =           0.0000
     HEAD DEP BOUNDS     =     8354588.5000       HEAD DEP BOUNDS     =           0.2880
      STREAM LEAKAGE     =   341183296.0000        STREAM LEAKAGE     =          11.3084
        UZF RECHARGE     =       73223.9531          UZF RECHARGE     =           0.0000
               GW ET     =           0.0000                 GW ET     =           0.0000
     SURFACE LEAKAGE     =           0.0000       SURFACE LEAKAGE     =           0.0000
           AG WELLS      =           0.0000             AG WELLS      =           0.0000

                TOTAL IN =   950298880.0000                  TOTAL IN =          21.1972

          OUT:                                     OUT:
          ----                                     ----
             STORAGE     =   236511920.0000               STORAGE     =          10.6757
       CONSTANT HEAD     =           0.0000         CONSTANT HEAD     =           0.0000
     HEAD DEP BOUNDS     =     8356698.0000       HEAD DEP BOUNDS     =           0.2877
      STREAM LEAKAGE     =   299676736.0000        STREAM LEAKAGE     =          10.2339
        UZF RECHARGE     =           0.0000          UZF RECHARGE     =           0.0000
               GW ET     =           0.0000                 GW ET     =           0.0000
     SURFACE LEAKAGE     =           0.0000       SURFACE LEAKAGE     =           0.0000
           AG WELLS      =   405755808.0000             AG WELLS      =           0.0000

               TOTAL OUT =   950301184.0000                 TOTAL OUT =          21.1972

                IN - OUT =       -2304.0000                  IN - OUT =       7.6294E-06

     PERCENT DISCREPANCY =          -0.00         PERCENT DISCREPANCY =           0.00






         TIME SUMMARY AT END OF TIME STEP   30 IN STRESS PERIOD   12
                    SECONDS     MINUTES      HOURS       DAYS        YEARS
                    -----------------------------------------------------------
   TIME STEP LENGTH  87667.      1461.1      24.352      1.0147     2.77799E-03
 STRESS PERIOD TIME 2.63000E+06  43833.      730.56      30.440     8.33397E-02
         TOTAL TIME 2.90163E+07 4.83606E+05  8060.1      335.84     0.91947    
1
1
                            STRESS PERIOD NO.   13, LENGTH =   2630000.    
                            -----------------------------------------------

                              NUMBER OF TIME STEPS =    30

                               MULTIPLIER FOR DELT =     1.000

                            INITIAL TIME STEP SIZE =   87666.66    

 REUSING NON-PARAMETER GHB CELLS FROM LAST STRESS PERIOD

      2 GHB CELLS

 REUSING STREAM SEGMENT DATA FROM LAST STRESS PERIOD



            AREAL INFILTRATION RATE
 READING ON UNIT   19 WITH FORMAT: (FREE)              

            1           2           3           4           5           6           7           8           9          10
 ........................................................................................................................
   1   1.0000E-10  2.0000E-10   0.000       0.000       0.000       0.000       0.000       0.000       0.000       0.000    
   2   2.0000E-10  1.0000E-10  2.0000E-10   0.000       0.000      8.0000E-10  8.0000E-10  5.0000E-10   0.000       0.000    
   3    0.000      5.0000E-10  1.0000E-10  1.0000E-10  8.0000E-10  8.0000E-10  5.0000E-10  5.0000E-10   0.000       0.000    
   4   8.0000E-10  5.0000E-10  1.0000E-10  1.0000E-10  1.0000E-10  1.0000E-10  1.0000E-10  1.0000E-10  2.0000E-10   0.000    
   5   8.0000E-10  5.0000E-10  1.0000E-10  1.0000E-10  1.0000E-10  1.0000E-10  1.0000E-10  1.0000E-10  1.0000E-10  1.0000E-10
   6   8.0000E-10  5.0000E-10  5.0000E-10  2.0000E-10  2.0000E-10  1.0000E-10  1.0000E-10  1.0000E-10  1.0000E-10  5.0000E-10
   7   8.0000E-10  5.0000E-10  5.0000E-10  2.0000E-10  2.0000E-10  1.0000E-10  1.0000E-10  2.0000E-10  2.0000E-10   0.000    
   8    0.000      5.0000E-10  5.0000E-10  2.0000E-10  2.0000E-10  1.0000E-10  1.0000E-10  2.0000E-10  5.0000E-10   0.000    
   9    0.000      5.0000E-10  5.0000E-10  2.0000E-10  2.0000E-10  1.0000E-10  1.0000E-10  2.0000E-10  5.0000E-10   0.000    
  10    0.000      5.0000E-10  5.0000E-10  2.0000E-10  2.0000E-10  1.0000E-10  1.0000E-10  2.0000E-10  5.0000E-10  8.0000E-10
  11    0.000      1.0000E-10  1.0000E-10  1.0000E-10  1.0000E-10  1.0000E-10  1.0000E-10  2.0000E-10  5.0000E-10   0.000    
  12   1.0000E-10  1.0000E-10  1.0000E-10  1.0000E-10  1.0000E-10  1.0000E-10  1.0000E-10  1.0000E-10  2.0000E-10   0.000    
  13   1.0000E-10  1.0000E-10  2.0000E-10  2.0000E-10  2.0000E-10  2.0000E-10  2.0000E-10  1.0000E-10  1.0000E-10   0.000    
  14    0.000      2.0000E-10  5.0000E-10  5.0000E-10  5.0000E-10  5.0000E-10  5.0000E-10  2.0000E-10  1.0000E-10   0.000    
  15    0.000       0.000      8.0000E-10  8.0000E-10  8.0000E-10  8.0000E-10   0.000       0.000       0.000       0.000    

                  ET RATE =  5.000000E-10

 USING ET EXTINCTION DEPTH FROM PREVIOUS STRESS PERIOD. CURRENT PERIOD IS:      13

 USING EXTINCTION WATER CONTENT FROM PREVIOUS STRESS PERIOD. CURRENT PERIOD IS:      13

 USING AIR ENTRY PRESSURE FROM PREVIOUS STRESS PERIOD. CURRENT PERIOD IS:      13

 USING ROOT PRESSURE HEAD FROM PREVIOUS STRESS PERIOD. CURRENT PERIOD IS:      13

 USING ROOT ACTIVITY FROM PREVIOUS STRESS PERIOD. CURRENT PERIOD IS:      13

 PROCESSING AG STRESS PERIOD DATA

 READING AG STRESS PERIOD DATA

 READING IRRIGATION SEGMENT

 READING IRRIGATION WELL

 READING SUPPLEMENTAL WELL

 NO IRRPOND OR REUSING IRRPOND DATA FROM LAST STRESS PERIOD

 END PROCESSING AG STRESS PERIOD DATA OPTIONS
 
 SOLVING FOR HEAD 
                                                   Max.-Head-Change                         Max.-Flux-Residual
  Residual-Control   Outer-Iter.   Inner-Iter.     Column Row Layer    Maximum-Head-Change  Column Row Layer    Maximum-Flux-Residual          L2-NORM 
          0                 1           2             4    7     1       0.3201518035E-01       4    7    1         0.1685626914E+01      0.3626120519E+01
          0                 2           2             4    7     1      -0.3114226677E-02       4    7    1        -0.1685642270E+00      0.3626080388E+00
          0                 3           2             4    7     1       0.2120670703E-03       4    7    1         0.1179948646E-01      0.2538215040E-01
          0                 4           1             4    7     1      -0.8438348387E-05       4    7    1        -0.4825997401E-03      0.1038117773E-02

    ------------------------------------------------
       NWT REQUIRED            4 OUTER ITERATIONS 
       AND A TOTAL OF          7 INNER ITERATIONS.
    ------------------------------------------------

 NO OUTPUT CONTROL FOR STRESS PERIOD   13   TIME STEP    1
 
 SOLVING FOR HEAD 
                                                   Max.-Head-Change                         Max.-Flux-Residual
  Residual-Control   Outer-Iter.   Inner-Iter.     Column Row Layer    Maximum-Head-Change  Column Row Layer    Maximum-Flux-Residual          L2-NORM 
          0                 1           2             4    7     1       0.3159586224E-01       4    7    1         0.1663446267E+01      0.3586161101E+01
          0                 2           2             4    7     1      -0.3073437862E-02       4    7    1        -0.1663461217E+00      0.3586124105E+00
          0                 3           2             4    7     1       0.2092895088E-03       4    7    1         0.1164421940E-01      0.2510242423E-01
          0                 4           1             4    7     1      -0.8327826352E-05       4    7    1        -0.4762492995E-03      0.1026645035E-02

    ------------------------------------------------
       NWT REQUIRED            4 OUTER ITERATIONS 
       AND A TOTAL OF          7 INNER ITERATIONS.
    ------------------------------------------------

 NO OUTPUT CONTROL FOR STRESS PERIOD   13   TIME STEP    2
 
 SOLVING FOR HEAD 
                                                   Max.-Head-Change                         Max.-Flux-Residual
  Residual-Control   Outer-Iter.   Inner-Iter.     Column Row Layer    Maximum-Head-Change  Column Row Layer    Maximum-Flux-Residual          L2-NORM 
          0                 1           2             4    7     1       0.3118387335E-01       4    7    1         0.1641654073E+01      0.3546877768E+01
          0                 2           2             4    7     1      -0.3033361998E-02       4    7    1        -0.1641668629E+00      0.3546843679E+00
          0                 3           2             4    7     1       0.2065604972E-03       4    7    1         0.1149167160E-01      0.2482752686E-01
          0                 4           1             4    7     1      -0.8219236617E-05       4    7    1        -0.4700100981E-03      0.1015423650E-02

    ------------------------------------------------
       NWT REQUIRED            4 OUTER ITERATIONS 
       AND A TOTAL OF          7 INNER ITERATIONS.
    ------------------------------------------------

 NO OUTPUT CONTROL FOR STRESS PERIOD   13   TIME STEP    3
 
 SOLVING FOR HEAD 
                                                   Max.-Head-Change                         Max.-Flux-Residual
  Residual-Control   Outer-Iter.   Inner-Iter.     Column Row Layer    Maximum-Head-Change  Column Row Layer    Maximum-Flux-Residual          L2-NORM 
          0                 1           2             4    7     1       0.3077932268E-01       4    7    1         0.1620256488E+01      0.3508259813E+01
          0                 2           2             4    7     1      -0.2994009687E-02       4    7    1        -0.1620270661E+00      0.3508228675E+00
          0                 3           2             4    7     1       0.2038807558E-03       4    7    1         0.1134188610E-01      0.2455723333E-01
          0                 4           1             4    7     1      -0.8112607391E-05       4    7    1        -0.4638838655E-03      0.1004355241E-02

    ------------------------------------------------
       NWT REQUIRED            4 OUTER ITERATIONS 
       AND A TOTAL OF          7 INNER ITERATIONS.
    ------------------------------------------------

 NO OUTPUT CONTROL FOR STRESS PERIOD   13   TIME STEP    4
 
 SOLVING FOR HEAD 
                                                   Max.-Head-Change                         Max.-Flux-Residual
  Residual-Control   Outer-Iter.   Inner-Iter.     Column Row Layer    Maximum-Head-Change  Column Row Layer    Maximum-Flux-Residual          L2-NORM 
          0                 1           2             4    7     1       0.3038177704E-01       4    7    1         0.1599229955E+01      0.3470293398E+01
          0                 2           2             4    7     1      -0.2955338792E-02       4    7    1        -0.1599243756E+00      0.3470264524E+00
          0                 3           2             4    7     1       0.2012474168E-03       4    7    1         0.1119469808E-01      0.2429152456E-01
          0                 4           1             4    7     1      -0.8007824006E-05       4    7    1        -0.4578638543E-03      0.9934991456E-03

    ------------------------------------------------
       NWT REQUIRED            4 OUTER ITERATIONS 
       AND A TOTAL OF          7 INNER ITERATIONS.
    ------------------------------------------------

 NO OUTPUT CONTROL FOR STRESS PERIOD   13   TIME STEP    5
 
 SOLVING FOR HEAD 
                                                   Max.-Head-Change                         Max.-Flux-Residual
  Residual-Control   Outer-Iter.   Inner-Iter.     Column Row Layer    Maximum-Head-Change  Column Row Layer    Maximum-Flux-Residual          L2-NORM 
          0                 1           2             4    7     1       0.2999135523E-01       4    7    1         0.1578581224E+01      0.3432963606E+01
          0                 2           2             4    7     1      -0.2917360865E-02       4    7    1        -0.1578594664E+00      0.3432936558E+00
          0                 3           2             4    7     1       0.1986612657E-03       4    7    1         0.1105015471E-01      0.2403013929E-01
          0                 4           1             4    7     1      -0.7904918697E-05       4    7    1        -0.4519520103E-03      0.9827730221E-03

    ------------------------------------------------
       NWT REQUIRED            4 OUTER ITERATIONS 
       AND A TOTAL OF          7 INNER ITERATIONS.
    ------------------------------------------------

 NO OUTPUT CONTROL FOR STRESS PERIOD   13   TIME STEP    6
 
 SOLVING FOR HEAD 
                                                   Max.-Head-Change                         Max.-Flux-Residual
  Residual-Control   Outer-Iter.   Inner-Iter.     Column Row Layer    Maximum-Head-Change  Column Row Layer    Maximum-Flux-Residual          L2-NORM 
          0                 1           2             4    7     1       0.2960762592E-01       4    7    1         0.1558287242E+01      0.3396247376E+01
          0                 2           2             4    7     1      -0.2880033951E-02       4    7    1        -0.1558300332E+00      0.3396222253E+00
          0                 3           2             4    7     1       0.1961194464E-03       4    7    1         0.1090809465E-01      0.2377326219E-01
          0                 4           1             4    7     1      -0.7803777258E-05       4    7    1        -0.4461417554E-03      0.9723064476E-03

    ------------------------------------------------
       NWT REQUIRED            4 OUTER ITERATIONS 
       AND A TOTAL OF          7 INNER ITERATIONS.
    ------------------------------------------------

 NO OUTPUT CONTROL FOR STRESS PERIOD   13   TIME STEP    7
 
 SOLVING FOR HEAD 
                                                   Max.-Head-Change                         Max.-Flux-Residual
  Residual-Control   Outer-Iter.   Inner-Iter.     Column Row Layer    Maximum-Head-Change  Column Row Layer    Maximum-Flux-Residual          L2-NORM 
          0                 1           2             4    7     1       0.2923071706E-01       4    7    1         0.1538354861E+01      0.3360143068E+01
          0                 2           2             4    7     1      -0.2843370496E-02       4    7    1        -0.1538367610E+00      0.3360119656E+00
          0                 3           2             4    7     1       0.1936228058E-03       4    7    1         0.1076856585E-01      0.2352055061E-01
          0                 4           1             4    7     1      -0.7704433767E-05       4    7    1        -0.4404350184E-03      0.9619702448E-03

    ------------------------------------------------
       NWT REQUIRED            4 OUTER ITERATIONS 
       AND A TOTAL OF          7 INNER ITERATIONS.
    ------------------------------------------------

 NO OUTPUT CONTROL FOR STRESS PERIOD   13   TIME STEP    8
 
 SOLVING FOR HEAD 
                                                   Max.-Head-Change                         Max.-Flux-Residual
  Residual-Control   Outer-Iter.   Inner-Iter.     Column Row Layer    Maximum-Head-Change  Column Row Layer    Maximum-Flux-Residual          L2-NORM 
          0                 1           2             4    7     1       0.2886047558E-01       4    7    1         0.1518776106E+01      0.3324635234E+01
          0                 2           2             4    7     1      -0.2807355610E-02       4    7    1        -0.1518788525E+00      0.3324613238E+00
          0                 3           2             4    7     1       0.1911703303E-03       4    7    1         0.1063151251E-01      0.2327202287E-01
          0                 4           1             4    7     1      -0.7606847123E-05       4    7    1        -0.4348295224E-03      0.9518208222E-03

    ------------------------------------------------
       NWT REQUIRED            4 OUTER ITERATIONS 
       AND A TOTAL OF          7 INNER ITERATIONS.
    ------------------------------------------------

 NO OUTPUT CONTROL FOR STRESS PERIOD   13   TIME STEP    9
 
 SOLVING FOR HEAD 
                                                   Max.-Head-Change                         Max.-Flux-Residual
  Residual-Control   Outer-Iter.   Inner-Iter.     Column Row Layer    Maximum-Head-Change  Column Row Layer    Maximum-Flux-Residual          L2-NORM 
          0                 1           2             4    7     1       0.2849661437E-01       4    7    1         0.1499535738E+01      0.3289695801E+01
          0                 2           2             4    7     1      -0.2771961364E-02       4    7    1        -0.1499547836E+00      0.3289675046E+00
          0                 3           2             4    7     1       0.1887601181E-03       4    7    1         0.1049682793E-01      0.2302747655E-01
          0                 4           1             4    7     1      -0.7510942838E-05       4    7    1        -0.4293209229E-03      0.9418144935E-03

    ------------------------------------------------
       NWT REQUIRED            4 OUTER ITERATIONS 
       AND A TOTAL OF          7 INNER ITERATIONS.
    ------------------------------------------------

 NO OUTPUT CONTROL FOR STRESS PERIOD   13   TIME STEP   10
 
 SOLVING FOR HEAD 
                                                   Max.-Head-Change                         Max.-Flux-Residual
  Residual-Control   Outer-Iter.   Inner-Iter.     Column Row Layer    Maximum-Head-Change  Column Row Layer    Maximum-Flux-Residual          L2-NORM 
          0                 1           2             4    7     1       0.2813899791E-01       4    7    1         0.1480626174E+01      0.3255330527E+01
          0                 2           2             4    7     1      -0.2737174575E-02       4    7    1        -0.1480637959E+00      0.3255310841E+00
          0                 3           2             4    7     1       0.1863912710E-03       4    7    1         0.1036445903E-01      0.2278692802E-01
          0                 4           1             4    7     1      -0.7416683957E-05       4    7    1        -0.4239070240E-03      0.9319701537E-03

    ------------------------------------------------
       NWT REQUIRED            4 OUTER ITERATIONS 
       AND A TOTAL OF          7 INNER ITERATIONS.
    ------------------------------------------------

 NO OUTPUT CONTROL FOR STRESS PERIOD   13   TIME STEP   11
 
 SOLVING FOR HEAD 
                                                   Max.-Head-Change                         Max.-Flux-Residual
  Residual-Control   Outer-Iter.   Inner-Iter.     Column Row Layer    Maximum-Head-Change  Column Row Layer    Maximum-Flux-Residual          L2-NORM 
          0                 1           2             4    7     1       0.2778762049E-01       4    7    1         0.1462047693E+01      0.3221512809E+01
          0                 2           2             4    7     1      -0.2702994688E-02       4    7    1        -0.1462059175E+00      0.3221494309E+00
          0                 3           2             4    7     1       0.1840637518E-03       4    7    1         0.1023440778E-01      0.2255022723E-01
          0                 4           1             4    7     1      -0.7324069674E-05       4    7    1        -0.4185879075E-03      0.9222902554E-03

    ------------------------------------------------
       NWT REQUIRED            4 OUTER ITERATIONS 
       AND A TOTAL OF          7 INNER ITERATIONS.
    ------------------------------------------------

 NO OUTPUT CONTROL FOR STRESS PERIOD   13   TIME STEP   12
 
 SOLVING FOR HEAD 
                                                   Max.-Head-Change                         Max.-Flux-Residual
  Residual-Control   Outer-Iter.   Inner-Iter.     Column Row Layer    Maximum-Head-Change  Column Row Layer    Maximum-Flux-Residual          L2-NORM 
          0                 1           2             4    7     1       0.2744234646E-01       4    7    1         0.1443792695E+01      0.3188243216E+01
          0                 2           2             4    7     1      -0.2669408507E-02       4    7    1        -0.1443803883E+00      0.3188225596E+00
          0                 3           2             4    7     1       0.1817766619E-03       4    7    1         0.1010662098E-01      0.2231737104E-01
          0                 4           1             4    7     1      -0.7233064300E-05       4    7    1        -0.4133614113E-03      0.9127704891E-03

    ------------------------------------------------
       NWT REQUIRED            4 OUTER ITERATIONS 
       AND A TOTAL OF          7 INNER ITERATIONS.
    ------------------------------------------------

 NO OUTPUT CONTROL FOR STRESS PERIOD   13   TIME STEP   13
 
 SOLVING FOR HEAD 
                                                   Max.-Head-Change                         Max.-Flux-Residual
  Residual-Control   Outer-Iter.   Inner-Iter.     Column Row Layer    Maximum-Head-Change  Column Row Layer    Maximum-Flux-Residual          L2-NORM 
          0                 1           2             4    7     1       0.2710303742E-01       4    7    1         0.1425854145E+01      0.3155499865E+01
          0                 2           2             4    7     1      -0.2636402367E-02       4    7    1        -0.1425865047E+00      0.3155336317E+00
          0                 3           2             4    7     1       0.1795290700E-03       4    7    1         0.9981049319E-02      0.2208715769E-01
          0                 4           1             4    7     1      -0.7143630417E-05       4    7    1        -0.4082255402E-03      0.9033662629E-03

    ------------------------------------------------
       NWT REQUIRED            4 OUTER ITERATIONS 
       AND A TOTAL OF          7 INNER ITERATIONS.
    ------------------------------------------------

 NO OUTPUT CONTROL FOR STRESS PERIOD   13   TIME STEP   14
 
 SOLVING FOR HEAD 
                                                   Max.-Head-Change                         Max.-Flux-Residual
  Residual-Control   Outer-Iter.   Inner-Iter.     Column Row Layer    Maximum-Head-Change  Column Row Layer    Maximum-Flux-Residual          L2-NORM 
          0                 1           2             4    7     1       0.2676943150E-01       4    7    1         0.1408217573E+01      0.3123271967E+01
          0                 2           2             4    7     1      -0.2603951403E-02       4    7    1        -0.1408228197E+00      0.3123256391E+00
          0                 3           2             4    7     1       0.1773192839E-03       4    7    1         0.9857591590E-02      0.2186260121E-01
          0                 4           1             4    7     1      -0.7055701021E-05       4    7    1        -0.4031761068E-03      0.8941696293E-03

    ------------------------------------------------
       NWT REQUIRED            4 OUTER ITERATIONS 
       AND A TOTAL OF          7 INNER ITERATIONS.
    ------------------------------------------------

 NO OUTPUT CONTROL FOR STRESS PERIOD   13   TIME STEP   15
 
 SOLVING FOR HEAD 
                                                   Max.-Head-Change                         Max.-Flux-Residual
  Residual-Control   Outer-Iter.   Inner-Iter.     Column Row Layer    Maximum-Head-Change  Column Row Layer    Maximum-Flux-Residual          L2-NORM 
          0                 1           2             4    7     1       0.2644167911E-01       4    7    1         0.1390891290E+01      0.3091658667E+01
          0                 2           2             4    7     1      -0.2572069635E-02       4    7    1        -0.1390901644E+00      0.3091643427E+00
          0                 3           2             4    7     1       0.1751482573E-03       4    7    1         0.9736305914E-02      0.2164130486E-01
          0                 4           1             4    7     1      -0.6969313760E-05       4    7    1        -0.3982155063E-03      0.8851448165E-03

    ------------------------------------------------
       NWT REQUIRED            4 OUTER ITERATIONS 
       AND A TOTAL OF          7 INNER ITERATIONS.
    ------------------------------------------------

 NO OUTPUT CONTROL FOR STRESS PERIOD   13   TIME STEP   16
 
 SOLVING FOR HEAD 
                                                   Max.-Head-Change                         Max.-Flux-Residual
  Residual-Control   Outer-Iter.   Inner-Iter.     Column Row Layer    Maximum-Head-Change  Column Row Layer    Maximum-Flux-Residual          L2-NORM 
          0                 1           2             4    7     1       0.2611951222E-01       4    7    1         0.1373861204E+01      0.3060530480E+01
          0                 2           2             4    7     1      -0.2540731196E-02       4    7    1        -0.1373871296E+00      0.3060515858E+00
          0                 3           2             4    7     1       0.1730142297E-03       4    7    1         0.9617093680E-02      0.2142342304E-01
          0                 4           1             4    7     1      -0.6884398865E-05       4    7    1        -0.3933397240E-03      0.8762105424E-03

    ------------------------------------------------
       NWT REQUIRED            4 OUTER ITERATIONS 
       AND A TOTAL OF          7 INNER ITERATIONS.
    ------------------------------------------------

 NO OUTPUT CONTROL FOR STRESS PERIOD   13   TIME STEP   17
 
 SOLVING FOR HEAD 
                                                   Max.-Head-Change                         Max.-Flux-Residual
  Residual-Control   Outer-Iter.   Inner-Iter.     Column Row Layer    Maximum-Head-Change  Column Row Layer    Maximum-Flux-Residual          L2-NORM 
          0                 1           2             4    7     1       0.2580281217E-01       4    7    1         0.1357120716E+01      0.3029889712E+01
          0                 2           2             4    7     1      -0.2509924542E-02       4    7    1        -0.1357130553E+00      0.3029875706E+00
          0                 3           2             4    7     1       0.1709164141E-03       4    7    1         0.9499908659E-02      0.2120895223E-01
          0                 4           1             4    7     1      -0.6800924562E-05       4    7    1        -0.3885468402E-03      0.8674374998E-03

    ------------------------------------------------
       NWT REQUIRED            4 OUTER ITERATIONS 
       AND A TOTAL OF          7 INNER ITERATIONS.
    ------------------------------------------------

 NO OUTPUT CONTROL FOR STRESS PERIOD   13   TIME STEP   18
 
 SOLVING FOR HEAD 
                                                   Max.-Head-Change                         Max.-Flux-Residual
  Residual-Control   Outer-Iter.   Inner-Iter.     Column Row Layer    Maximum-Head-Change  Column Row Layer    Maximum-Flux-Residual          L2-NORM 
          0                 1           2             4    7     1       0.2549145984E-01       4    7    1         0.1340663673E+01      0.2999716991E+01
          0                 2           2             4    7     1      -0.2479638110E-02       4    7    1        -0.1340673262E+00      0.2999703523E+00
          0                 3           2             4    7     1       0.1688540234E-03       4    7    1         0.9384707806E-02      0.2099775687E-01
          0                 4           1             4    7     1      -0.6718860458E-05       4    7    1        -0.3838351249E-03      0.8588050697E-03

    ------------------------------------------------
       NWT REQUIRED            4 OUTER ITERATIONS 
       AND A TOTAL OF          7 INNER ITERATIONS.
    ------------------------------------------------

 NO OUTPUT CONTROL FOR STRESS PERIOD   13   TIME STEP   19
 
 SOLVING FOR HEAD 
                                                   Max.-Head-Change                         Max.-Flux-Residual
  Residual-Control   Outer-Iter.   Inner-Iter.     Column Row Layer    Maximum-Head-Change  Column Row Layer    Maximum-Flux-Residual          L2-NORM 
          0                 1           2             4    7     1       0.2518547482E-01       4    7    1         0.1324491208E+01      0.2970014585E+01
          0                 2           2             4    7     1      -0.2449873795E-02       4    7    1        -0.1324500556E+00      0.2970001911E+00
          0                 3           2             4    7     1       0.1668271874E-03       4    7    1         0.9271499054E-02      0.2078984115E-01
          0                 4           1             4    7     1      -0.6638210350E-05       4    7    1        -0.3792048669E-03      0.8502957376E-03

    ------------------------------------------------
       NWT REQUIRED            4 OUTER ITERATIONS 
       AND A TOTAL OF          7 INNER ITERATIONS.
    ------------------------------------------------

 NO OUTPUT CONTROL FOR STRESS PERIOD   13   TIME STEP   20
 
 SOLVING FOR HEAD 
                                                   Max.-Head-Change                         Max.-Flux-Residual
  Residual-Control   Outer-Iter.   Inner-Iter.     Column Row Layer    Maximum-Head-Change  Column Row Layer    Maximum-Flux-Residual          L2-NORM 
          0                 1           2             4    7     1       0.2488460186E-01       4    7    1         0.1308589717E+01      0.2940759115E+01
          0                 2           2             4    7     1      -0.2420606714E-02       4    7    1        -0.1308598831E+00      0.2940746967E+00
          0                 3           2             4    7     1       0.1648342112E-03       4    7    1         0.9160187155E-02      0.2058508145E-01
          0                 4           1             4    7     1      -0.6558908041E-05       4    7    1        -0.3746522102E-03      0.8419281026E-03

    ------------------------------------------------
       NWT REQUIRED            4 OUTER ITERATIONS 
       AND A TOTAL OF          7 INNER ITERATIONS.
    ------------------------------------------------

 NO OUTPUT CONTROL FOR STRESS PERIOD   13   TIME STEP   21
 
 SOLVING FOR HEAD 
                                                   Max.-Head-Change                         Max.-Flux-Residual
  Residual-Control   Outer-Iter.   Inner-Iter.     Column Row Layer    Maximum-Head-Change  Column Row Layer    Maximum-Flux-Residual          L2-NORM 
          0                 1           2             4    7     1       0.2458886301E-01       4    7    1         0.1292960590E+01      0.2911952120E+01
          0                 2           2             4    7     1      -0.2391839051E-02       4    7    1        -0.1292969477E+00      0.2911939868E+00
          0                 3           2             4    7     1       0.1628752434E-03       4    7    1         0.9050781841E-02      0.2038340413E-01
          0                 4           1             4    7     1      -0.6480958942E-05       4    7    1        -0.3701775302E-03      0.8336726872E-03

    ------------------------------------------------
       NWT REQUIRED            4 OUTER ITERATIONS 
       AND A TOTAL OF          7 INNER ITERATIONS.
    ------------------------------------------------

 NO OUTPUT CONTROL FOR STRESS PERIOD   13   TIME STEP   22
 
 SOLVING FOR HEAD 
                                                   Max.-Head-Change                         Max.-Flux-Residual
  Residual-Control   Outer-Iter.   Inner-Iter.     Column Row Layer    Maximum-Head-Change  Column Row Layer    Maximum-Flux-Residual          L2-NORM 
          0                 1           2             4    7     1       0.2429801014E-01       4    7    1         0.1277590345E+01      0.2883577624E+01
          0                 2           2             4    7     1      -0.2363546671E-02       4    7    1        -0.1277599011E+00      0.2883565708E+00
          0                 3           2             4    7     1       0.1609486402E-03       4    7    1         0.8943188731E-02      0.2018481085E-01
          0                 4           1             4    7     1      -0.6404297430E-05       4    7    1        -0.3657769655E-03      0.8255556574E-03

    ------------------------------------------------
       NWT REQUIRED            4 OUTER ITERATIONS 
       AND A TOTAL OF          7 INNER ITERATIONS.
    ------------------------------------------------

 NO OUTPUT CONTROL FOR STRESS PERIOD   13   TIME STEP   23
 
 SOLVING FOR HEAD 
                                                   Max.-Head-Change                         Max.-Flux-Residual
  Residual-Control   Outer-Iter.   Inner-Iter.     Column Row Layer    Maximum-Head-Change  Column Row Layer    Maximum-Flux-Residual          L2-NORM 
          0                 1           2             4    7     1       0.2401207187E-01       4    7    1         0.1262480742E+01      0.2855635928E+01
          0                 2           2             4    7     1      -0.2335732357E-02       4    7    1        -0.1262489193E+00      0.2855627415E+00
          0                 3           2             4    7     1       0.1590545919E-03       4    7    1         0.8837420178E-02      0.1998922569E-01
          0                 4           1             4    7     1      -0.6328931449E-05       4    7    1        -0.3614510267E-03      0.8175494196E-03

    ------------------------------------------------
       NWT REQUIRED            4 OUTER ITERATIONS 
       AND A TOTAL OF          7 INNER ITERATIONS.
    ------------------------------------------------

 NO OUTPUT CONTROL FOR STRESS PERIOD   13   TIME STEP   24
 
 SOLVING FOR HEAD 
                                                   Max.-Head-Change                         Max.-Flux-Residual
  Residual-Control   Outer-Iter.   Inner-Iter.     Column Row Layer    Maximum-Head-Change  Column Row Layer    Maximum-Flux-Residual          L2-NORM 
          0                 1           2             4    7     1       0.2373093630E-01       4    7    1         0.1247625951E+01      0.2828107835E+01
          0                 2           2             4    7     1      -0.2308385222E-02       4    7    1        -0.1247634193E+00      0.2828096202E+00
          0                 3           2             4    7     1       0.1571923564E-03       4    7    1         0.8733435325E-02      0.1979651541E-01
          0                 4           1             4    7     1      -0.6254831642E-05       4    7    1        -0.3571980449E-03      0.8096747679E-03

    ------------------------------------------------
       NWT REQUIRED            4 OUTER ITERATIONS 
       AND A TOTAL OF          7 INNER ITERATIONS.
    ------------------------------------------------

 NO OUTPUT CONTROL FOR STRESS PERIOD   13   TIME STEP   25
 
 SOLVING FOR HEAD 
                                                   Max.-Head-Change                         Max.-Flux-Residual
  Residual-Control   Outer-Iter.   Inner-Iter.     Column Row Layer    Maximum-Head-Change  Column Row Layer    Maximum-Flux-Residual          L2-NORM 
          0                 1           2             4    7     1       0.2345436381E-01       4    7    1         0.1233012860E+01      0.2800984149E+01
          0                 2           2             4    7     1      -0.2281481961E-02       4    7    1        -0.1233020899E+00      0.2800972630E+00
          0                 3           2             4    7     1       0.1553603471E-03       4    7    1         0.8631142426E-02      0.1960665164E-01
          0                 4           1             4    7     1      -0.6181934342E-05       4    7    1        -0.3530142560E-03      0.8019025947E-03

    ------------------------------------------------
       NWT REQUIRED            4 OUTER ITERATIONS 
       AND A TOTAL OF          7 INNER ITERATIONS.
    ------------------------------------------------

 NO OUTPUT CONTROL FOR STRESS PERIOD   13   TIME STEP   26
 
 SOLVING FOR HEAD 
                                                   Max.-Head-Change                         Max.-Flux-Residual
  Residual-Control   Outer-Iter.   Inner-Iter.     Column Row Layer    Maximum-Head-Change  Column Row Layer    Maximum-Flux-Residual          L2-NORM 
          0                 1           2             4    7     1       0.2318239114E-01       4    7    1         0.1218643668E+01      0.2774269723E+01
          0                 2           2             4    7     1      -0.2255026143E-02       4    7    1        -0.1218651510E+00      0.2774258561E+00
          0                 3           2             4    7     1       0.1535588068E-03       4    7    1         0.8530556845E-02      0.1941966049E-01
          0                 4           1             4    7     1      -0.6110249105E-05       4    7    1        -0.3489002959E-03      0.7942948332E-03

    ------------------------------------------------
       NWT REQUIRED            4 OUTER ITERATIONS 
       AND A TOTAL OF          7 INNER ITERATIONS.
    ------------------------------------------------

 NO OUTPUT CONTROL FOR STRESS PERIOD   13   TIME STEP   27
 
 SOLVING FOR HEAD 
                                                   Max.-Head-Change                         Max.-Flux-Residual
  Residual-Control   Outer-Iter.   Inner-Iter.     Column Row Layer    Maximum-Head-Change  Column Row Layer    Maximum-Flux-Residual          L2-NORM 
          0                 1           2             4    7     1       0.2291504778E-01       4    7    1         0.1204520281E+01      0.2747944423E+01
          0                 2           2             4    7     1      -0.2229020641E-02       4    7    1        -0.1204527931E+00      0.2747933908E+00
          0                 3           2             4    7     1       0.1517879309E-03       4    7    1         0.8431691925E-02      0.1923546404E-01
          0                 4           1             4    7     1      -0.6039784221E-05       4    7    1        -0.3448566990E-03      0.7867635391E-03

    ------------------------------------------------
       NWT REQUIRED            4 OUTER ITERATIONS 
       AND A TOTAL OF          7 INNER ITERATIONS.
    ------------------------------------------------

 NO OUTPUT CONTROL FOR STRESS PERIOD   13   TIME STEP   28
 
 SOLVING FOR HEAD 
                                                   Max.-Head-Change                         Max.-Flux-Residual
  Residual-Control   Outer-Iter.   Inner-Iter.     Column Row Layer    Maximum-Head-Change  Column Row Layer    Maximum-Flux-Residual          L2-NORM 
          0                 1           2             4    7     1       0.2265196213E-01       4    7    1         0.1190622291E+01      0.2722009833E+01
          0                 2           2             4    7     1      -0.2203429304E-02       4    7    1        -0.1190629755E+00      0.2721998733E+00
          0                 3           2             4    7     1       0.1500452585E-03       4    7    1         0.8334404811E-02      0.1905386175E-01
          0                 4           1             4    7     1      -0.5970441601E-05       4    7    1        -0.3408776624E-03      0.7793065823E-03

    ------------------------------------------------
       NWT REQUIRED            4 OUTER ITERATIONS 
       AND A TOTAL OF          7 INNER ITERATIONS.
    ------------------------------------------------

 NO OUTPUT CONTROL FOR STRESS PERIOD   13   TIME STEP   29
 
 SOLVING FOR HEAD 
                                                   Max.-Head-Change                         Max.-Flux-Residual
  Residual-Control   Outer-Iter.   Inner-Iter.     Column Row Layer    Maximum-Head-Change  Column Row Layer    Maximum-Flux-Residual          L2-NORM 
          0                 1           2             4    7     1       0.2239317773E-01       4    7    1         0.1176952368E+01      0.2696449243E+01
          0                 2           2             4    7     1      -0.2178256370E-02       4    7    1        -0.1176959650E+00      0.2696438203E+00
          0                 3           2             4    7     1       0.1483310777E-03       4    7    1         0.8238714211E-02      0.1887492335E-01
          0                 4           1             4    7     1      -0.5902232527E-05       4    7    1        -0.3369639091E-03      0.7719744675E-03

    ------------------------------------------------
       NWT REQUIRED            4 OUTER ITERATIONS 
       AND A TOTAL OF          7 INNER ITERATIONS.
    ------------------------------------------------

 NO OUTPUT CONTROL FOR STRESS PERIOD   13   TIME STEP   30



 STREAM LISTING     PERIOD     13   STEP       30

 LAYER ROW COL. STREAM  RCH.  FLOW INTO     FLOW TO   FLOW OUT OF   OVRLND.     DIRECT     STREAM       STREAM     STREAM     STREAM   STREAMBED  STREAMBED
                SEG.NO.  NO.  STRM. RCH.    AQUIFER    STRM. RCH.    RUNOFF     PRECIP       ET          HEAD       DEPTH      WIDTH   CONDCTNC.   GRADIENT

   1    1    1     1     1    8.6249E+00  1.3546E-01   8.4895E+00  0.000E+00  0.000E+00  0.000E+00  1.09390E+03  8.549E-01  7.809E+00  3.514E-02  1.285E+00
   1    2    2     1     2    8.4895E+00  2.0809E-01   8.2814E+00  0.000E+00  0.000E+00  0.000E+00  1.08891E+03  8.492E-01  7.723E+00  5.406E-02  1.283E+00
   1    3    3     1     3    8.2814E+00  1.7583E-01   8.1056E+00  0.000E+00  0.000E+00  0.000E+00  1.08326E+03  8.427E-01  7.626E+00  4.576E-02  1.281E+00
   1    3    4     1     4    8.1056E+00  1.6058E-01   7.9450E+00  0.000E+00  0.000E+00  0.000E+00  1.07824E+03  8.369E-01  7.541E+00  4.185E-02  1.279E+00
   1    4    5     2     1    5.9450E+00  2.7323E-01   5.6717E+00  0.000E+00  0.000E+00  0.000E+00  1.07244E+03  5.030E-01  1.200E+01  7.800E-02  1.168E+00
   1    5    6     2     2    5.6717E+00  2.0942E-01   5.4623E+00  0.000E+00  0.000E+00  0.000E+00  1.06700E+03  4.904E-01  1.200E+01  6.000E-02  1.163E+00
   1    6    6     2     3    5.4623E+00  2.0875E-01   5.2536E+00  0.000E+00  0.000E+00  0.000E+00  1.06227E+03  4.792E-01  1.200E+01  6.000E-02  1.160E+00
   1    7    6     2     4    5.2536E+00  2.0808E-01   5.0455E+00  0.000E+00  0.000E+00  0.000E+00  1.05754E+03  4.680E-01  1.200E+01  6.000E-02  1.156E+00
   1    8    6     2     5    5.0455E+00  2.0739E-01   4.8381E+00  0.000E+00  0.000E+00  0.000E+00  1.05282E+03  4.565E-01  1.200E+01  6.000E-02  1.152E+00
   1    3    5     3     1    2.0000E+00  2.8252E-01   1.7175E+00  0.000E+00  0.000E+00  0.000E+00  1.07555E+03  1.909E+00  9.636E+00  7.227E-02  1.955E+00
   1    3    6     3     2    1.7175E+00  2.4905E-01   1.4684E+00  0.000E+00  0.000E+00  0.000E+00  1.07264E+03  1.727E+00  8.909E+00  6.682E-02  1.864E+00
   1    3    7     3     3    1.4684E+00  1.9718E-01   1.2712E+00  0.000E+00  0.000E+00  0.000E+00  1.06987E+03  1.555E+00  8.218E+00  5.547E-02  1.777E+00
   1    4    8     3     4    1.2712E+00  2.2567E-01   1.0456E+00  0.000E+00  0.000E+00  0.000E+00  1.06682E+03  1.364E+00  7.455E+00  6.709E-02  1.682E+00
   1    5    8     3     5    1.0456E+00  1.5790E-01   8.8768E-01  0.000E+00  0.000E+00  0.000E+00  1.06362E+03  1.164E+00  6.655E+00  4.991E-02  1.582E+00
   1    6    8     3     6    8.8768E-01  5.5980E-02   8.3170E-01  0.000E+00  0.000E+00  0.000E+00  1.06158E+03  1.036E+00  6.145E+00  1.844E-02  1.518E+00
   1    5   10     4     1    1.0000E+01  9.0919E-02   9.9091E+00  0.000E+00  0.000E+00  0.000E+00  1.07836E+03  6.368E-01  1.000E+01  2.500E-02  1.212E+00
   1    5    9     4     2    9.9091E+00  1.8158E-01   9.7275E+00  0.000E+00  0.000E+00  0.000E+00  1.07154E+03  6.315E-01  1.000E+01  5.000E-02  1.211E+00
   1    6    8     4     3    9.7275E+00  1.2689E-01   9.6006E+00  0.000E+00  0.000E+00  0.000E+00  1.06381E+03  6.256E-01  1.000E+01  3.500E-02  1.209E+00
   1    6    8     5     1    1.0432E+01  2.2686E-01   1.0205E+01  0.000E+00  0.000E+00  0.000E+00  1.05868E+03  6.790E-01  1.542E+01  6.166E-02  1.226E+00
   1    7    7     5     2    1.0205E+01  2.7894E-01   9.9265E+00  0.000E+00  0.000E+00  0.000E+00  1.05417E+03  6.732E-01  1.519E+01  7.594E-02  1.224E+00
   1    8    7     5     3    9.9265E+00  1.9221E-01   9.7343E+00  0.000E+00  0.000E+00  0.000E+00  1.04992E+03  6.676E-01  1.497E+01  5.241E-02  1.223E+00
   1    8    6     5     4    9.7343E+00  1.3577E-01   9.5985E+00  0.000E+00  0.000E+00  0.000E+00  1.04691E+03  6.637E-01  1.482E+01  3.706E-02  1.221E+00
   1    9    6     6     1    1.4437E+01  2.3244E-01   1.4204E+01  0.000E+00  0.000E+00  0.000E+00  1.04360E+03  8.741E-01  1.200E+01  6.000E-02  1.291E+00
   1   10    7     6     2    1.4204E+01  2.3193E-01   1.3972E+01  0.000E+00  0.000E+00  0.000E+00  1.03905E+03  8.655E-01  1.200E+01  6.000E-02  1.289E+00
   1   11    7     6     3    1.3972E+01  2.3142E-01   1.3741E+01  0.000E+00  0.000E+00  0.000E+00  1.03449E+03  8.570E-01  1.200E+01  6.000E-02  1.286E+00
   1   12    7     6     4    1.3741E+01  2.3090E-01   1.3510E+01  0.000E+00  0.000E+00  0.000E+00  1.02994E+03  8.484E-01  1.200E+01  6.000E-02  1.283E+00
   1   13    7     6     5    1.3510E+01 -1.3079E-02   1.3523E+01  0.000E+00  0.000E+00  0.000E+00  1.02675E+03  8.443E-01  1.200E+01  2.400E-01 -1.816E-02
   1   14    9     7     1    1.5000E+02  1.3696E+00   1.4863E+02  0.000E+00  0.000E+00  0.000E+00  1.03987E+03  2.288E+00  5.529E+01  5.593E-01  8.163E-01
   1   13    8     7     2    1.4863E+02  1.9229E+00   1.4671E+02  0.000E+00  0.000E+00  0.000E+00  1.03478E+03  2.279E+00  5.525E+01  6.148E-01  1.043E+00
   1   13    7     7     3    1.4671E+02  1.6087E+00   1.4510E+02  0.000E+00  0.000E+00  0.000E+00  1.02969E+03  2.269E+00  5.521E+01  5.584E-01  9.603E-01
   1   13    6     8     1    1.5862E+02  9.9843E-01   1.5762E+02  0.000E+00  0.000E+00  0.000E+00  1.02475E+03  2.873E+00  4.166E+01  4.245E-01  7.839E-01
   1   13    5     8     2    1.5762E+02  2.6148E-01   1.5736E+02  0.000E+00  0.000E+00  0.000E+00  1.01849E+03  2.869E+00  4.160E+01  4.239E-01  2.056E-01
   1   13    4     8     3    1.5736E+02 -2.1169E+00   1.5948E+02  0.000E+00  0.000E+00  0.000E+00  1.01225E+03  2.875E+00  4.169E+01  4.248E+00 -1.661E-01
   1   13    3     8     4    1.5948E+02 -3.5005E+00   1.6298E+02  0.000E+00  0.000E+00  0.000E+00  1.00602E+03  2.894E+00  4.196E+01  4.276E+00 -2.729E-01
   1   13    2     8     5    1.6298E+02 -2.5464E+00   1.6553E+02  0.000E+00  0.000E+00  0.000E+00  9.99789E+02  2.914E+00  4.226E+01  4.306E+00 -1.971E-01
   1   13    1     8     6    1.6553E+02 -1.9733E+00   1.6750E+02  0.000E+00  0.000E+00  0.000E+00  9.94804E+02  2.929E+00  4.248E+01  2.597E+00 -2.533E-01
   1    8    6     9     1    0.0000E+00  0.0000E+00   0.0000E+00  0.000E+00  0.000E+00  0.000E+00  1.07875E+03  0.000E+00  4.000E+00  0.000E+00  1.000E+00
   1    8    5     9     2    0.0000E+00  0.0000E+00   0.0000E+00  0.000E+00  0.000E+00  0.000E+00  1.07825E+03  0.000E+00  4.000E+00  0.000E+00  1.000E+00





UNSATURATED ZONE PACKAGE VOLUMETRIC BUDGET FOR  TIME STEP    30 STRESS PERIOD   13
  ------------------------------------------------------------------------------



     CUMULATIVE VOLUMES      L**3       RATES FOR THIS TIME STEP      L**3/T
     ------------------                 ------------------------

           IN:                                      IN:
           ---                                      ---
        INFILTRATION =   651998712.3567          INFILTRATION =           0.8475

          OUT:                                     OUT:
          ----                                     ----
              UZF ET =   430094828.9751                UZF ET =           0.7500
        UZF RECHARGE =       73224.0000          UZF RECHARGE =       0.0000E+00

            IN - OUT =   221830659.3816              IN - OUT =       9.7500E-02

          STORAGE:                                 STORAGE:
          --------                                 --------
      STORAGE CHANGE =   221830868.6656        STORAGE CHANGE =       9.7500E-02

 PERCENT DISCREPANCY IS DIFFERENCE BETWEEN IN-OUT MINUS CHANGE IN STORAGE
 DIVIDED BY THE AVERAGE OF IN AND OUT TIMES 100

 PERCENT DISCREPANCY =          -0.00     PERCENT DISCREPANCY =           0.00






1
  VOLUMETRIC BUDGET FOR AGRICULTURAL FIELDS AT  END OF TIME STEP   30, STRESS PERIOD  13
  ------------------------------------------------------------------------------

     CUMULATIVE VOLUMES      L**3       RATES FOR THIS TIME STEP      L**3/T
     ------------------                 ------------------------

           IN:                                      IN:
           ---                                      ---
               AG WELLS  =   405755808.0000                 AG WELLS  =           0.0000
      DIVERSION SEGMENTS =   219481136.0000        DIVERSION SEGMENTS =           0.0000
       IRRIGATION PONDS  =           0.0000         IRRIGATION PONDS  =           0.0000
           GW IRRIGATION =           0.0000             GW IRRIGATION =           0.0000
           SW IRRIGATION =           0.0000             SW IRRIGATION =           0.0000
        SYSTEM LOSSES GW =           0.0000          SYSTEM LOSSES GW =           0.0000
        SYSTEM LOSSES SW =           0.0000          SYSTEM LOSSES SW =           0.0000

                TOTAL IN =   625236928.0000                  TOTAL IN =           0.0000

          OUT:                                     OUT:
          ----                                     ----
               AG WELLS  =           0.0000                 AG WELLS  =           0.0000
      DIVERSION SEGMENTS =           0.0000        DIVERSION SEGMENTS =           0.0000
       IRRIGATION PONDS  =           0.0000         IRRIGATION PONDS  =           0.0000
           GW IRRIGATION =   405755808.0000             GW IRRIGATION =           0.0000
           SW IRRIGATION =   219485376.0000             SW IRRIGATION =           0.0000
        SYSTEM LOSSES GW =           0.0000          SYSTEM LOSSES GW =           0.0000
        SYSTEM LOSSES SW =           0.0000          SYSTEM LOSSES SW =           0.0000

               TOTAL OUT =   625241216.0000                 TOTAL OUT =           0.0000

                IN - OUT =       -4288.0000                  IN - OUT =           0.0000

     PERCENT DISCREPANCY =          -0.00         PERCENT DISCREPANCY =           0.00



1
  VOLUMETRIC BUDGET FOR ENTIRE MODEL AT END OF TIME STEP   30, STRESS PERIOD  13
  ------------------------------------------------------------------------------

     CUMULATIVE VOLUMES      L**3       RATES FOR THIS TIME STEP      L**3/T
     ------------------                 ------------------------

           IN:                                      IN:
           ---                                      ---
             STORAGE     =   622896576.0000               STORAGE     =           7.3920
       CONSTANT HEAD     =           0.0000         CONSTANT HEAD     =           0.0000
     HEAD DEP BOUNDS     =     9112162.0000       HEAD DEP BOUNDS     =           0.2881
      STREAM LEAKAGE     =   370786496.0000        STREAM LEAKAGE     =          11.2761
        UZF RECHARGE     =       73223.9531          UZF RECHARGE     =           0.0000
               GW ET     =           0.0000                 GW ET     =           0.0000
     SURFACE LEAKAGE     =           0.0000       SURFACE LEAKAGE     =           0.0000
           AG WELLS      =           0.0000             AG WELLS      =           0.0000

                TOTAL IN =  1002868480.0000                  TOTAL IN =          18.9562

          OUT:                                     OUT:
          ----                                     ----
             STORAGE     =   261465536.0000               STORAGE     =           8.5185
       CONSTANT HEAD     =           0.0000         CONSTANT HEAD     =           0.0000
     HEAD DEP BOUNDS     =     9112886.0000       HEAD DEP BOUNDS     =           0.2874
      STREAM LEAKAGE     =   326536288.0000        STREAM LEAKAGE     =          10.1503
        UZF RECHARGE     =           0.0000          UZF RECHARGE     =           0.0000
               GW ET     =           0.0000                 GW ET     =           0.0000
     SURFACE LEAKAGE     =           0.0000       SURFACE LEAKAGE     =           0.0000
           AG WELLS      =   405755808.0000             AG WELLS      =           0.0000

               TOTAL OUT =  1002870528.0000                 TOTAL OUT =          18.9562

                IN - OUT =       -2048.0000                  IN - OUT =       7.6294E-06

     PERCENT DISCREPANCY =          -0.00         PERCENT DISCREPANCY =           0.00






         TIME SUMMARY AT END OF TIME STEP   30 IN STRESS PERIOD   13
                    SECONDS     MINUTES      HOURS       DAYS        YEARS
                    -----------------------------------------------------------
   TIME STEP LENGTH  87667.      1461.1      24.352      1.0147     2.77799E-03
 STRESS PERIOD TIME 2.63000E+06  43833.      730.56      30.440     8.33397E-02
         TOTAL TIME 3.16463E+07 5.27439E+05  8790.6      366.28      1.0028    
1
1
                            STRESS PERIOD NO.   14, LENGTH =   2630000.    
                            -----------------------------------------------

                              NUMBER OF TIME STEPS =    30

                               MULTIPLIER FOR DELT =     1.000

                            INITIAL TIME STEP SIZE =   87666.66    

 REUSING NON-PARAMETER GHB CELLS FROM LAST STRESS PERIOD

      2 GHB CELLS

 REUSING STREAM SEGMENT DATA FROM LAST STRESS PERIOD



            AREAL INFILTRATION RATE
 READING ON UNIT   19 WITH FORMAT: (FREE)              

            1           2           3           4           5           6           7           8           9          10
 ........................................................................................................................
   1   1.0000E-10  2.0000E-10   0.000       0.000       0.000       0.000       0.000       0.000       0.000       0.000    
   2   2.0000E-10  1.0000E-10  2.0000E-10   0.000       0.000      8.0000E-10  8.0000E-10  5.0000E-10   0.000       0.000    
   3    0.000      5.0000E-10  1.0000E-10  1.0000E-10  8.0000E-10  8.0000E-10  5.0000E-10  5.0000E-10   0.000       0.000    
   4   8.0000E-10  5.0000E-10  1.0000E-10  1.0000E-10  1.0000E-10  1.0000E-10  1.0000E-10  1.0000E-10  2.0000E-10   0.000    
   5   8.0000E-10  5.0000E-10  1.0000E-10  1.0000E-10  1.0000E-10  1.0000E-10  1.0000E-10  1.0000E-10  1.0000E-10  1.0000E-10
   6   8.0000E-10  5.0000E-10  5.0000E-10  2.0000E-10  2.0000E-10  1.0000E-10  1.0000E-10  1.0000E-10  1.0000E-10  5.0000E-10
   7   8.0000E-10  5.0000E-10  5.0000E-10  2.0000E-10  2.0000E-10  1.0000E-10  1.0000E-10  2.0000E-10  2.0000E-10   0.000    
   8    0.000      5.0000E-10  5.0000E-10  2.0000E-10  2.0000E-10  1.0000E-10  1.0000E-10  2.0000E-10  5.0000E-10   0.000    
   9    0.000      5.0000E-10  5.0000E-10  2.0000E-10  2.0000E-10  1.0000E-10  1.0000E-10  2.0000E-10  5.0000E-10   0.000    
  10    0.000      5.0000E-10  5.0000E-10  2.0000E-10  2.0000E-10  1.0000E-10  1.0000E-10  2.0000E-10  5.0000E-10  8.0000E-10
  11    0.000      1.0000E-10  1.0000E-10  1.0000E-10  1.0000E-10  1.0000E-10  1.0000E-10  2.0000E-10  5.0000E-10   0.000    
  12   1.0000E-10  1.0000E-10  1.0000E-10  1.0000E-10  1.0000E-10  1.0000E-10  1.0000E-10  1.0000E-10  2.0000E-10   0.000    
  13   1.0000E-10  1.0000E-10  2.0000E-10  2.0000E-10  2.0000E-10  2.0000E-10  2.0000E-10  1.0000E-10  1.0000E-10   0.000    
  14    0.000      2.0000E-10  5.0000E-10  5.0000E-10  5.0000E-10  5.0000E-10  5.0000E-10  2.0000E-10  1.0000E-10   0.000    
  15    0.000       0.000      8.0000E-10  8.0000E-10  8.0000E-10  8.0000E-10   0.000       0.000       0.000       0.000    

                  ET RATE =  5.000000E-10

 USING ET EXTINCTION DEPTH FROM PREVIOUS STRESS PERIOD. CURRENT PERIOD IS:      14

 USING EXTINCTION WATER CONTENT FROM PREVIOUS STRESS PERIOD. CURRENT PERIOD IS:      14

 USING AIR ENTRY PRESSURE FROM PREVIOUS STRESS PERIOD. CURRENT PERIOD IS:      14

 USING ROOT PRESSURE HEAD FROM PREVIOUS STRESS PERIOD. CURRENT PERIOD IS:      14

 USING ROOT ACTIVITY FROM PREVIOUS STRESS PERIOD. CURRENT PERIOD IS:      14

 PROCESSING AG STRESS PERIOD DATA

 READING AG STRESS PERIOD DATA

 READING IRRIGATION SEGMENT

 READING IRRIGATION WELL

 READING SUPPLEMENTAL WELL

 NO IRRPOND OR REUSING IRRPOND DATA FROM LAST STRESS PERIOD

 END PROCESSING AG STRESS PERIOD DATA OPTIONS
 
 SOLVING FOR HEAD 
                                                   Max.-Head-Change                         Max.-Flux-Residual
  Residual-Control   Outer-Iter.   Inner-Iter.     Column Row Layer    Maximum-Head-Change  Column Row Layer    Maximum-Flux-Residual          L2-NORM 
          0                 1           2             4    7     1       0.2213872293E-01       4    7    1         0.1163512770E+01      0.2672844580E+01
          0                 2           2             4    7     1      -0.2153504596E-02       4    7    1        -0.1163519876E+00      0.2672811825E+00
          0                 3           2             4    7     1       0.1466455763E-03       4    7    1         0.8144635930E-02      0.1870935834E-01
          0                 4           1             4    7     1      -0.5835165059E-05       4    7    1        -0.3331160979E-03      0.7651979689E-03

    ------------------------------------------------
       NWT REQUIRED            4 OUTER ITERATIONS 
       AND A TOTAL OF          7 INNER ITERATIONS.
    ------------------------------------------------

 NO OUTPUT CONTROL FOR STRESS PERIOD   14   TIME STEP    1
 
 SOLVING FOR HEAD 
                                                   Max.-Head-Change                         Max.-Flux-Residual
  Residual-Control   Outer-Iter.   Inner-Iter.     Column Row Layer    Maximum-Head-Change  Column Row Layer    Maximum-Flux-Residual          L2-NORM 
          0                 1           2             4    7     1       0.2188835511E-01       4    7    1         0.1150290342E+01      0.2650937398E+01
          0                 2           2             4    7     1      -0.2129150382E-02       4    7    1        -0.1150297277E+00      0.2650854480E+00
          0                 3           2             4    7     1       0.1449871470E-03       4    7    1         0.8052077859E-02      0.1855520543E-01
          0                 4           1             4    7     1      -0.5769174609E-05       4    7    1        -0.3293304644E-03      0.7588633294E-03

    ------------------------------------------------
       NWT REQUIRED            4 OUTER ITERATIONS 
       AND A TOTAL OF          7 INNER ITERATIONS.
    ------------------------------------------------

 NO OUTPUT CONTROL FOR STRESS PERIOD   14   TIME STEP    2
 
 SOLVING FOR HEAD 
                                                   Max.-Head-Change                         Max.-Flux-Residual
  Residual-Control   Outer-Iter.   Inner-Iter.     Column Row Layer    Maximum-Head-Change  Column Row Layer    Maximum-Flux-Residual          L2-NORM 
          0                 1           2             4    7     1       0.2164198651E-01       4    7    1         0.1137279816E+01      0.2626335132E+01
          0                 2           2             4    7     1      -0.2105185189E-02       4    7    1        -0.1137286585E+00      0.2626259100E+00
          0                 3           2             4    7     1       0.1433552087E-03       4    7    1         0.7961003132E-02      0.1838308947E-01
          0                 4           1             4    7     1      -0.5704238152E-05       4    7    1        -0.3256055097E-03      0.7518392189E-03

    ------------------------------------------------
       NWT REQUIRED            4 OUTER ITERATIONS 
       AND A TOTAL OF          7 INNER ITERATIONS.
    ------------------------------------------------

 NO OUTPUT CONTROL FOR STRESS PERIOD   14   TIME STEP    3
 
 SOLVING FOR HEAD 
                                                   Max.-Head-Change                         Max.-Flux-Residual
  Residual-Control   Outer-Iter.   Inner-Iter.     Column Row Layer    Maximum-Head-Change  Column Row Layer    Maximum-Flux-Residual          L2-NORM 
          0                 1           2             4    7     1       0.2139952696E-01       4    7    1         0.1124476643E+01      0.2602086808E+01
          0                 2           2             4    7     1      -0.2081600246E-02       4    7    1        -0.1124483250E+00      0.2602016995E+00
          0                 3           2             4    7     1       0.1417491638E-03       4    7    1         0.7871379895E-02      0.1821347544E-01
          0                 4           1             4    7     1      -0.5640332203E-05       4    7    1        -0.3219399041E-03      0.7448928862E-03

    ------------------------------------------------
       NWT REQUIRED            4 OUTER ITERATIONS 
       AND A TOTAL OF          7 INNER ITERATIONS.
    ------------------------------------------------

 NO OUTPUT CONTROL FOR STRESS PERIOD   14   TIME STEP    4
 
 SOLVING FOR HEAD 
                                                   Max.-Head-Change                         Max.-Flux-Residual
  Residual-Control   Outer-Iter.   Inner-Iter.     Column Row Layer    Maximum-Head-Change  Column Row Layer    Maximum-Flux-Residual          L2-NORM 
          0                 1           2             4    7     1       0.2116103182E-01       4    7    1         0.1111883461E+01      0.2578203069E+01
          0                 2           2             4    7     1      -0.2058400938E-02       4    7    1        -0.1111889911E+00      0.2578138692E+00
          0                 3           2             4    7     1       0.1401693792E-03       4    7    1         0.7783226631E-02      0.1804634713E-01
          0                 4           1             4    7     1      -0.5577471382E-05       4    7    1        -0.3183344365E-03      0.7380695375E-03

    ------------------------------------------------
       NWT REQUIRED            4 OUTER ITERATIONS 
       AND A TOTAL OF          7 INNER ITERATIONS.
    ------------------------------------------------

 NO OUTPUT CONTROL FOR STRESS PERIOD   14   TIME STEP    5
 
 SOLVING FOR HEAD 
                                                   Max.-Head-Change                         Max.-Flux-Residual
  Residual-Control   Outer-Iter.   Inner-Iter.     Column Row Layer    Maximum-Head-Change  Column Row Layer    Maximum-Flux-Residual          L2-NORM 
          0                 1           2             4    7     1       0.2092627688E-01       4    7    1         0.1099488512E+01      0.2554657917E+01
          0                 2           2             4    7     1      -0.2035565458E-02       4    7    1        -0.1099494809E+00      0.2554598386E+00
          0                 3           2             4    7     1       0.1386143701E-03       4    7    1         0.7696461033E-02      0.1788162444E-01
          0                 4           1             4    7     1      -0.5515596053E-05       4    7    1        -0.3147857312E-03      0.7313431924E-03

    ------------------------------------------------
       NWT REQUIRED            4 OUTER ITERATIONS 
       AND A TOTAL OF          7 INNER ITERATIONS.
    ------------------------------------------------

 NO OUTPUT CONTROL FOR STRESS PERIOD   14   TIME STEP    6
 
 SOLVING FOR HEAD 
                                                   Max.-Head-Change                         Max.-Flux-Residual
  Residual-Control   Outer-Iter.   Inner-Iter.     Column Row Layer    Maximum-Head-Change  Column Row Layer    Maximum-Flux-Residual          L2-NORM 
          0                 1           2             4    7     1       0.2069531568E-01       4    7    1         0.1087294803E+01      0.2531459541E+01
          0                 2           2             4    7     1      -0.2013099011E-02       4    7    1        -0.1087300950E+00      0.2531404288E+00
          0                 3           2             4    7     1       0.1370844905E-03       4    7    1         0.7611104130E-02      0.1771928287E-01
          0                 4           1             4    7     1      -0.5454720838E-05       4    7    1        -0.3112946208E-03      0.7247801646E-03

    ------------------------------------------------
       NWT REQUIRED            4 OUTER ITERATIONS 
       AND A TOTAL OF          7 INNER ITERATIONS.
    ------------------------------------------------

 NO OUTPUT CONTROL FOR STRESS PERIOD   14   TIME STEP    7
 
 SOLVING FOR HEAD 
                                                   Max.-Head-Change                         Max.-Flux-Residual
  Residual-Control   Outer-Iter.   Inner-Iter.     Column Row Layer    Maximum-Head-Change  Column Row Layer    Maximum-Flux-Residual          L2-NORM 
          0                 1           2             4    7     1       0.2046792953E-01       4    7    1         0.1075290476E+01      0.2508585730E+01
          0                 2           2             4    7     1      -0.1990980324E-02       4    7    1        -0.1075296478E+00      0.2508534563E+00
          0                 3           2             4    7     1       0.1355782918E-03       4    7    1         0.7527072923E-02      0.1755925735E-01
          0                 4           1             4    7     1      -0.5394787481E-05       4    7    1        -0.3078577272E-03      0.7181577539E-03

    ------------------------------------------------
       NWT REQUIRED            4 OUTER ITERATIONS 
       AND A TOTAL OF          7 INNER ITERATIONS.
    ------------------------------------------------

 NO OUTPUT CONTROL FOR STRESS PERIOD   14   TIME STEP    8
 
 SOLVING FOR HEAD 
                                                   Max.-Head-Change                         Max.-Flux-Residual
  Residual-Control   Outer-Iter.   Inner-Iter.     Column Row Layer    Maximum-Head-Change  Column Row Layer    Maximum-Flux-Residual          L2-NORM 
          0                 1           2             4    7     1       0.2024418203E-01       4    7    1         0.1063478825E+01      0.2486038441E+01
          0                 2           2             4    7     1      -0.1969215584E-02       4    7    1        -0.1063484687E+00      0.2485990486E+00
          0                 3           2             4    7     1       0.1340961959E-03       4    7    1         0.7444390486E-02      0.1740146506E-01
          0                 4           1             4    7     1      -0.5335813483E-05       4    7    1        -0.3044760169E-03      0.7116964653E-03

    ------------------------------------------------
       NWT REQUIRED            4 OUTER ITERATIONS 
       AND A TOTAL OF          7 INNER ITERATIONS.
    ------------------------------------------------

 NO OUTPUT CONTROL FOR STRESS PERIOD   14   TIME STEP    9
 
 SOLVING FOR HEAD 
                                                   Max.-Head-Change                         Max.-Flux-Residual
  Residual-Control   Outer-Iter.   Inner-Iter.     Column Row Layer    Maximum-Head-Change  Column Row Layer    Maximum-Flux-Residual          L2-NORM 
          0                 1           2             4    7     1       0.2002385388E-01       4    7    1         0.1051848516E+01      0.2463806225E+01
          0                 2           2             4    7     1      -0.1947783460E-02       4    7    1        -0.1051854240E+00      0.2463761282E+00
          0                 3           2             4    7     1       0.1326367497E-03       4    7    1         0.7362977457E-02      0.1724587531E-01
          0                 4           1             4    7     1      -0.5277740589E-05       4    7    1        -0.3011462175E-03      0.7053333356E-03

    ------------------------------------------------
       NWT REQUIRED            4 OUTER ITERATIONS 
       AND A TOTAL OF          7 INNER ITERATIONS.
    ------------------------------------------------

 NO OUTPUT CONTROL FOR STRESS PERIOD   14   TIME STEP   10
 
 SOLVING FOR HEAD 
                                                   Max.-Head-Change                         Max.-Flux-Residual
  Residual-Control   Outer-Iter.   Inner-Iter.     Column Row Layer    Maximum-Head-Change  Column Row Layer    Maximum-Flux-Residual          L2-NORM 
          0                 1           2             4    7     1       0.1980714227E-01       4    7    1         0.1040410127E+01      0.2441892130E+01
          0                 2           2             4    7     1      -0.1926703133E-02       4    7    1        -0.1040415719E+00      0.2441850016E+00
          0                 3           2             4    7     1       0.1312012596E-03       4    7    1         0.7282907900E-02      0.1709252391E-01
          0                 4           1             4    7     1      -0.5220621066E-05       4    7    1        -0.2978713690E-03      0.6990494139E-03

    ------------------------------------------------
       NWT REQUIRED            4 OUTER ITERATIONS 
       AND A TOTAL OF          7 INNER ITERATIONS.
    ------------------------------------------------

 NO OUTPUT CONTROL FOR STRESS PERIOD   14   TIME STEP   11
 
 SOLVING FOR HEAD 
                                                   Max.-Head-Change                         Max.-Flux-Residual
  Residual-Control   Outer-Iter.   Inner-Iter.     Column Row Layer    Maximum-Head-Change  Column Row Layer    Maximum-Flux-Residual          L2-NORM 
          0                 1           2             4    7     1       0.1959369902E-01       4    7    1         0.1029144617E+01      0.2420280629E+01
          0                 2           2             4    7     1      -0.1905940732E-02       4    7    1        -0.1029150079E+00      0.2420241086E+00
          0                 3           2             4    7     1       0.1297874189E-03       4    7    1         0.7204048489E-02      0.1694128893E-01
          0                 4           1             4    7     1      -0.5164363619E-05       4    7    1        -0.2946460318E-03      0.6928613931E-03

    ------------------------------------------------
       NWT REQUIRED            4 OUTER ITERATIONS 
       AND A TOTAL OF          7 INNER ITERATIONS.
    ------------------------------------------------

 NO OUTPUT CONTROL FOR STRESS PERIOD   14   TIME STEP   12
 
 SOLVING FOR HEAD 
                                                   Max.-Head-Change                         Max.-Flux-Residual
  Residual-Control   Outer-Iter.   Inner-Iter.     Column Row Layer    Maximum-Head-Change  Column Row Layer    Maximum-Flux-Residual          L2-NORM 
          0                 1           2             4    7     1       0.1938345642E-01       4    7    1         0.1018048566E+01      0.2398962173E+01
          0                 2           2             4    7     1      -0.1885489672E-02       4    7    1        -0.1018053900E+00      0.2398924818E+00
          0                 3           2             4    7     1       0.1283947789E-03       4    7    1         0.7126375318E-02      0.1679211444E-01
          0                 4           1             4    7     1      -0.5108948790E-05       4    7    1        -0.2914691750E-03      0.6867884699E-03

    ------------------------------------------------
       NWT REQUIRED            4 OUTER ITERATIONS 
       AND A TOTAL OF          7 INNER ITERATIONS.
    ------------------------------------------------

 NO OUTPUT CONTROL FOR STRESS PERIOD   14   TIME STEP   13
 
 SOLVING FOR HEAD 
                                                   Max.-Head-Change                         Max.-Flux-Residual
  Residual-Control   Outer-Iter.   Inner-Iter.     Column Row Layer    Maximum-Head-Change  Column Row Layer    Maximum-Flux-Residual          L2-NORM 
          0                 1           2             4    7     1       0.1917661566E-01       4    7    1         0.1007133097E+01      0.2377945679E+01
          0                 2           2             4    7     1      -0.1865369525E-02       4    7    1        -0.1007138309E+00      0.2377910481E+00
          0                 3           2             4    7     1       0.1270246738E-03       4    7    1         0.7049966285E-02      0.1664503972E-01
          0                 4           1             4    7     1      -0.5054431151E-05       4    7    1        -0.2883440507E-03      0.6807734138E-03

    ------------------------------------------------
       NWT REQUIRED            4 OUTER ITERATIONS 
       AND A TOTAL OF          7 INNER ITERATIONS.
    ------------------------------------------------

 NO OUTPUT CONTROL FOR STRESS PERIOD   14   TIME STEP   14
 
 SOLVING FOR HEAD 
                                                   Max.-Head-Change                         Max.-Flux-Residual
  Residual-Control   Outer-Iter.   Inner-Iter.     Column Row Layer    Maximum-Head-Change  Column Row Layer    Maximum-Flux-Residual          L2-NORM 
          0                 1           2             4    7     1       0.1897296761E-01       4    7    1         0.9963866914E+00      0.2357214983E+01
          0                 2           2             4    7     1      -0.1845559944E-02       4    7    1        -0.9963917830E-01      0.2357181340E+00
          0                 3           2             4    7     1       0.1256757165E-03       4    7    1         0.6974740681E-02      0.1649995853E-01
          0                 4           1             4    7     1      -0.5000754865E-05       4    7    1        -0.2852673197E-03      0.6748425811E-03

    ------------------------------------------------
       NWT REQUIRED            4 OUTER ITERATIONS 
       AND A TOTAL OF          7 INNER ITERATIONS.
    ------------------------------------------------

 NO OUTPUT CONTROL FOR STRESS PERIOD   14   TIME STEP   15
 
 SOLVING FOR HEAD 
                                                   Max.-Head-Change                         Max.-Flux-Residual
  Residual-Control   Outer-Iter.   Inner-Iter.     Column Row Layer    Maximum-Head-Change  Column Row Layer    Maximum-Flux-Residual          L2-NORM 
          0                 1           2             4    7     1       0.1877230796E-01       4    7    1         0.9857985034E+00      0.2336760737E+01
          0                 2           2             4    7     1      -0.1826041059E-02       4    7    1        -0.9858034783E-01      0.2336728625E+00
          0                 3           1             4    7     1       0.1243465569E-03       4    7    1         0.6900622626E-02      0.1635677012E-01
          0                 4           1             4    7     1      -0.4947868814E-05       4    7    1        -0.2822358701E-03      0.6689632680E-03

    ------------------------------------------------
       NWT REQUIRED            4 OUTER ITERATIONS 
       AND A TOTAL OF          6 INNER ITERATIONS.
    ------------------------------------------------

 NO OUTPUT CONTROL FOR STRESS PERIOD   14   TIME STEP   16
 
 SOLVING FOR HEAD 
                                                   Max.-Head-Change                         Max.-Flux-Residual
  Residual-Control   Outer-Iter.   Inner-Iter.     Column Row Layer    Maximum-Head-Change  Column Row Layer    Maximum-Flux-Residual          L2-NORM 
          0                 1           2             4    7     1       0.1857484568E-01       4    7    1         0.9753798966E+00      0.2316590145E+01
          0                 2           2             4    7     1      -0.1806833649E-02       4    7    1        -0.9753847579E-01      0.2316863874E+00
          0                 3           1             4    7     1       0.1230386052E-03       4    7    1         0.6827691649E-02      0.1621777105E-01
          0                 4           1             4    7     1      -0.4895824116E-05       4    7    1        -0.2792529956E-03      0.6633109748E-03

    ------------------------------------------------
       NWT REQUIRED            4 OUTER ITERATIONS 
       AND A TOTAL OF          6 INNER ITERATIONS.
    ------------------------------------------------

 NO OUTPUT CONTROL FOR STRESS PERIOD   14   TIME STEP   17
 
 SOLVING FOR HEAD 
                                                   Max.-Head-Change                         Max.-Flux-Residual
  Residual-Control   Outer-Iter.   Inner-Iter.     Column Row Layer    Maximum-Head-Change  Column Row Layer    Maximum-Flux-Residual          L2-NORM 
          0                 1           2             4    7     1       0.1838037273E-01       4    7    1         0.9651197251E+00      0.2296661944E+01
          0                 2           2             4    7     1      -0.1787916117E-02       4    7    1        -0.9651244760E-01      0.2296632685E+00
          0                 3           1             4    7     1       0.1217503929E-03       4    7    1         0.6755869752E-02      0.1607611228E-01
          0                 4           1             4    7     1      -0.4844565279E-05       4    7    1        -0.2763154757E-03      0.6574784386E-03

    ------------------------------------------------
       NWT REQUIRED            4 OUTER ITERATIONS 
       AND A TOTAL OF          6 INNER ITERATIONS.
    ------------------------------------------------

 NO OUTPUT CONTROL FOR STRESS PERIOD   14   TIME STEP   18
 
 SOLVING FOR HEAD 
                                                   Max.-Head-Change                         Max.-Flux-Residual
  Residual-Control   Outer-Iter.   Inner-Iter.     Column Row Layer    Maximum-Head-Change  Column Row Layer    Maximum-Flux-Residual          L2-NORM 
          0                 1           2             4    7     1       0.1818869024E-01       4    7    1         0.9550072746E+00      0.2276975862E+01
          0                 2           2             4    7     1      -0.1769270478E-02       4    7    1        -0.9550119177E-01      0.2276947779E+00
          0                 3           1             4    7     1       0.1204806956E-03       4    7    1         0.6685081919E-02      0.1593835102E-01
          0                 4           1             4    7     1      -0.4794042568E-05       4    7    1        -0.2734202474E-03      0.6518558064E-03

    ------------------------------------------------
       NWT REQUIRED            4 OUTER ITERATIONS 
       AND A TOTAL OF          6 INNER ITERATIONS.
    ------------------------------------------------

 NO OUTPUT CONTROL FOR STRESS PERIOD   14   TIME STEP   19
 
 SOLVING FOR HEAD 
                                                   Max.-Head-Change                         Max.-Flux-Residual
  Residual-Control   Outer-Iter.   Inner-Iter.     Column Row Layer    Maximum-Head-Change  Column Row Layer    Maximum-Flux-Residual          L2-NORM 
          0                 1           2             4    7     1       0.1800001691E-01       4    7    1         0.9450541192E+00      0.2257569063E+01
          0                 2           2             4    7     1      -0.1750917553E-02       4    7    1        -0.9450586576E-01      0.2257542467E+00
          0                 3           1             4    7     1       0.1192309310E-03       4    7    1         0.6615409167E-02      0.1580252869E-01
          0                 4           1             4    7     1      -0.4744313201E-05       4    7    1        -0.2705706283E-03      0.6463204829E-03

    ------------------------------------------------
       NWT REQUIRED            4 OUTER ITERATIONS 
       AND A TOTAL OF          6 INNER ITERATIONS.
    ------------------------------------------------

 NO OUTPUT CONTROL FOR STRESS PERIOD   14   TIME STEP   20
 
 SOLVING FOR HEAD 
                                                   Max.-Head-Change                         Max.-Flux-Residual
  Residual-Control   Outer-Iter.   Inner-Iter.     Column Row Layer    Maximum-Head-Change  Column Row Layer    Maximum-Flux-Residual          L2-NORM 
          0                 1           2             4    7     1       0.1781414883E-01       4    7    1         0.9352496649E+00      0.2238414956E+01
          0                 2           2             4    7     1      -0.1732837505E-02       4    7    1        -0.9352541010E-01      0.2238389087E+00
          0                 3           1             4    7     1       0.1179997483E-03       4    7    1         0.6546777334E-02      0.1566847105E-01
          0                 4           1             4    7     1      -0.4695323413E-05       4    7    1        -0.2677635866E-03      0.6408259566E-03

    ------------------------------------------------
       NWT REQUIRED            4 OUTER ITERATIONS 
       AND A TOTAL OF          6 INNER ITERATIONS.
    ------------------------------------------------

 NO OUTPUT CONTROL FOR STRESS PERIOD   14   TIME STEP   21
 
 SOLVING FOR HEAD 
                                                   Max.-Head-Change                         Max.-Flux-Residual
  Residual-Control   Outer-Iter.   Inner-Iter.     Column Row Layer    Maximum-Head-Change  Column Row Layer    Maximum-Flux-Residual          L2-NORM 
          0                 1           2             4    7     1       0.1763115803E-01       4    7    1         0.9255979778E+00      0.2219515181E+01
          0                 2           2             4    7     1      -0.1715037343E-02       4    7    1        -0.9256023147E-01      0.2219490009E+00
          0                 3           1             4    7     1       0.1167876248E-03       4    7    1         0.6479214904E-02      0.1553618005E-01
          0                 4           1             4    7     1      -0.4647091856E-05       4    7    1        -0.2650002825E-03      0.6354075527E-03

    ------------------------------------------------
       NWT REQUIRED            4 OUTER ITERATIONS 
       AND A TOTAL OF          6 INNER ITERATIONS.
    ------------------------------------------------

 NO OUTPUT CONTROL FOR STRESS PERIOD   14   TIME STEP   22
 
 SOLVING FOR HEAD 
                                                   Max.-Head-Change                         Max.-Flux-Residual
  Residual-Control   Outer-Iter.   Inner-Iter.     Column Row Layer    Maximum-Head-Change  Column Row Layer    Maximum-Flux-Residual          L2-NORM 
          0                 1           2             4    7     1       0.1745071581E-01       4    7    1         0.9160808327E+00      0.2200858039E+01
          0                 2           2             4    7     1      -0.1697485092E-02       4    7    1        -0.9160850726E-01      0.2200833886E+00
          0                 3           1             4    7     1       0.1155923828E-03       4    7    1         0.6412594274E-02      0.1540558525E-01
          0                 4           1             4    7     1      -0.4599531954E-05       4    7    1        -0.2622754823E-03      0.6300785975E-03

    ------------------------------------------------
       NWT REQUIRED            4 OUTER ITERATIONS 
       AND A TOTAL OF          6 INNER ITERATIONS.
    ------------------------------------------------

 NO OUTPUT CONTROL FOR STRESS PERIOD   14   TIME STEP   23
 
 SOLVING FOR HEAD 
                                                   Max.-Head-Change                         Max.-Flux-Residual
  Residual-Control   Outer-Iter.   Inner-Iter.     Column Row Layer    Maximum-Head-Change  Column Row Layer    Maximum-Flux-Residual          L2-NORM 
          0                 1           2             4    7     1       0.1727304103E-01       4    7    1         0.9067104686E+00      0.2182450323E+01
          0                 2           2             4    7     1      -0.1680202041E-02       4    7    1        -0.9067146143E-01      0.2182426620E+00
          0                 3           1             4    7     1       0.1144154725E-03       4    7    1         0.6347001119E-02      0.1527672597E-01
          0                 4           1             4    7     1      -0.4552701730E-05       4    7    1        -0.2595927267E-03      0.6247968504E-03

    ------------------------------------------------
       NWT REQUIRED            4 OUTER ITERATIONS 
       AND A TOTAL OF          6 INNER ITERATIONS.
    ------------------------------------------------

 NO OUTPUT CONTROL FOR STRESS PERIOD   14   TIME STEP   24
 
 SOLVING FOR HEAD 
                                                   Max.-Head-Change                         Max.-Flux-Residual
  Residual-Control   Outer-Iter.   Inner-Iter.     Column Row Layer    Maximum-Head-Change  Column Row Layer    Maximum-Flux-Residual          L2-NORM 
          0                 1           2             4    7     1       0.1709793960E-01       4    7    1         0.8974762708E+00      0.2164287405E+01
          0                 2           2             4    7     1      -0.1663169309E-02       4    7    1        -0.8974803245E-01      0.2164264425E+00
          0                 3           1             4    7     1       0.1132556082E-03       4    7    1         0.6282361151E-02      0.1514961192E-01
          0                 4           1             4    7     1      -0.4506549838E-05       4    7    1        -0.2569489632E-03      0.6196047401E-03

    ------------------------------------------------
       NWT REQUIRED            4 OUTER ITERATIONS 
       AND A TOTAL OF          6 INNER ITERATIONS.
    ------------------------------------------------

 NO OUTPUT CONTROL FOR STRESS PERIOD   14   TIME STEP   25
 
 SOLVING FOR HEAD 
                                                   Max.-Head-Change                         Max.-Flux-Residual
  Residual-Control   Outer-Iter.   Inner-Iter.     Column Row Layer    Maximum-Head-Change  Column Row Layer    Maximum-Flux-Residual          L2-NORM 
          0                 1           2             4    7     1       0.1692549297E-01       4    7    1         0.8883828180E+00      0.2146358572E+01
          0                 2           2             4    7     1      -0.1646394822E-02       4    7    1        -0.8883867821E-01      0.2146336844E+00
          0                 3           1             4    7     1       0.1121133289E-03       4    7    1         0.6218706405E-02      0.1502416134E-01
          0                 4           1             4    7     1      -0.4461097347E-05       4    7    1        -0.2543454721E-03      0.6144574042E-03

    ------------------------------------------------
       NWT REQUIRED            4 OUTER ITERATIONS 
       AND A TOTAL OF          6 INNER ITERATIONS.
    ------------------------------------------------

 NO OUTPUT CONTROL FOR STRESS PERIOD   14   TIME STEP   26
 
 SOLVING FOR HEAD 
                                                   Max.-Head-Change                         Max.-Flux-Residual
  Residual-Control   Outer-Iter.   Inner-Iter.     Column Row Layer    Maximum-Head-Change  Column Row Layer    Maximum-Flux-Residual          L2-NORM 
          0                 1           2             4    7     1       0.1675551052E-01       4    7    1         0.8794196917E+00      0.2128659480E+01
          0                 2           2             4    7     1      -0.1629860035E-02       4    7    1        -0.8794235685E-01      0.2128638147E+00
          0                 3           1             4    7     1       0.1109873725E-03       4    7    1         0.6155963971E-02      0.1490028053E-01
          0                 4           1             4    7     1      -0.4416294059E-05       4    7    1        -0.2517792907E-03      0.6094115022E-03

    ------------------------------------------------
       NWT REQUIRED            4 OUTER ITERATIONS 
       AND A TOTAL OF          6 INNER ITERATIONS.
    ------------------------------------------------

 NO OUTPUT CONTROL FOR STRESS PERIOD   14   TIME STEP   27
 
 SOLVING FOR HEAD 
                                                   Max.-Head-Change                         Max.-Flux-Residual
  Residual-Control   Outer-Iter.   Inner-Iter.     Column Row Layer    Maximum-Head-Change  Column Row Layer    Maximum-Flux-Residual          L2-NORM 
          0                 1           2             4    7     1       0.1658807506E-01       4    7    1         0.8705916502E+00      0.2111188476E+01
          0                 2           2             4    7     1      -0.1613573005E-02       4    7    1        -0.8705954420E-01      0.2111166898E+00
          0                 3           1             4    7     1       0.1098782872E-03       4    7    1         0.6094167134E-02      0.1477792595E-01
          0                 4           1             4    7     1      -0.4372162772E-05       4    7    1        -0.2492517997E-03      0.6043826537E-03

    ------------------------------------------------
       NWT REQUIRED            4 OUTER ITERATIONS 
       AND A TOTAL OF          6 INNER ITERATIONS.
    ------------------------------------------------

 NO OUTPUT CONTROL FOR STRESS PERIOD   14   TIME STEP   28
 
 SOLVING FOR HEAD 
                                                   Max.-Head-Change                         Max.-Flux-Residual
  Residual-Control   Outer-Iter.   Inner-Iter.     Column Row Layer    Maximum-Head-Change  Column Row Layer    Maximum-Flux-Residual          L2-NORM 
          0                 1           2             4    7     1       0.1642299984E-01       4    7    1         0.8618883449E+00      0.2093943845E+01
          0                 2           2             4    7     1      -0.1597515564E-02       4    7    1        -0.8618920538E-01      0.2093923311E+00
          0                 3           1             4    7     1       0.1087848360E-03       4    7    1         0.6033243469E-02      0.1465725912E-01
          0                 4           1             4    7     1      -0.4328653058E-05       4    7    1        -0.2467600077E-03      0.5994740443E-03

    ------------------------------------------------
       NWT REQUIRED            4 OUTER ITERATIONS 
       AND A TOTAL OF          6 INNER ITERATIONS.
    ------------------------------------------------

 NO OUTPUT CONTROL FOR STRESS PERIOD   14   TIME STEP   29
 
 SOLVING FOR HEAD 
                                                   Max.-Head-Change                         Max.-Flux-Residual
  Residual-Control   Outer-Iter.   Inner-Iter.     Column Row Layer    Maximum-Head-Change  Column Row Layer    Maximum-Flux-Residual          L2-NORM 
          0                 1           2             4    7     1       0.1626023778E-01       4    7    1         0.8533074134E+00      0.2076922987E+01
          0                 2           2             4    7     1      -0.1581683134E-02       4    7    1        -0.8533110415E-01      0.2076902566E+00
          0                 3           1             4    7     1       0.1077067076E-03       4    7    1         0.5973176436E-02      0.1453813169E-01
          0                 4           1             4    7     1      -0.4285753291E-05       4    7    1        -0.2443032752E-03      0.5946418289E-03

    ------------------------------------------------
       NWT REQUIRED            4 OUTER ITERATIONS 
       AND A TOTAL OF          6 INNER ITERATIONS.
    ------------------------------------------------

 NO OUTPUT CONTROL FOR STRESS PERIOD   14   TIME STEP   30



 STREAM LISTING     PERIOD     14   STEP       30

 LAYER ROW COL. STREAM  RCH.  FLOW INTO     FLOW TO   FLOW OUT OF   OVRLND.     DIRECT     STREAM       STREAM     STREAM     STREAM   STREAMBED  STREAMBED
                SEG.NO.  NO.  STRM. RCH.    AQUIFER    STRM. RCH.    RUNOFF     PRECIP       ET          HEAD       DEPTH      WIDTH   CONDCTNC.   GRADIENT

   1    1    1     1     1    7.1251E+00  1.2038E-01   7.0047E+00  0.000E+00  0.000E+00  0.000E+00  1.09385E+03  8.024E-01  7.035E+00  3.166E-02  1.267E+00
   1    2    2     1     2    7.0047E+00  1.8492E-01   6.8198E+00  0.000E+00  0.000E+00  0.000E+00  1.08886E+03  7.976E-01  6.956E+00  4.869E-02  1.266E+00
   1    3    3     1     3    6.8198E+00  1.5635E-01   6.6635E+00  0.000E+00  0.000E+00  0.000E+00  1.08321E+03  7.929E-01  6.870E+00  4.122E-02  1.264E+00
   1    3    4     1     4    6.6635E+00  1.4286E-01   6.5206E+00  0.000E+00  0.000E+00  0.000E+00  1.07820E+03  7.886E-01  6.794E+00  3.771E-02  1.263E+00
   1    4    5     2     1    4.5206E+00  2.6715E-01   4.2534E+00  0.000E+00  0.000E+00  0.000E+00  1.07236E+03  4.251E-01  1.200E+01  7.800E-02  1.142E+00
   1    5    6     2     2    4.2534E+00  2.0467E-01   4.0488E+00  0.000E+00  0.000E+00  0.000E+00  1.06692E+03  4.112E-01  1.200E+01  6.000E-02  1.137E+00
   1    6    6     2     3    4.0488E+00  2.0394E-01   3.8448E+00  0.000E+00  0.000E+00  0.000E+00  1.06219E+03  3.989E-01  1.200E+01  6.000E-02  1.133E+00
   1    7    6     2     4    3.8448E+00  2.0319E-01   3.6417E+00  0.000E+00  0.000E+00  0.000E+00  1.05746E+03  3.865E-01  1.200E+01  6.000E-02  1.129E+00
   1    8    6     2     5    3.6417E+00  2.0242E-01   3.4392E+00  0.000E+00  0.000E+00  0.000E+00  1.05273E+03  3.737E-01  1.200E+01  6.000E-02  1.125E+00
   1    3    5     3     1    2.0000E+00  2.8252E-01   1.7175E+00  0.000E+00  0.000E+00  0.000E+00  1.07555E+03  1.909E+00  9.636E+00  7.227E-02  1.955E+00
   1    3    6     3     2    1.7175E+00  2.4905E-01   1.4684E+00  0.000E+00  0.000E+00  0.000E+00  1.07264E+03  1.727E+00  8.909E+00  6.682E-02  1.864E+00
   1    3    7     3     3    1.4684E+00  1.9718E-01   1.2712E+00  0.000E+00  0.000E+00  0.000E+00  1.06987E+03  1.555E+00  8.218E+00  5.547E-02  1.777E+00
   1    4    8     3     4    1.2712E+00  2.2567E-01   1.0456E+00  0.000E+00  0.000E+00  0.000E+00  1.06682E+03  1.364E+00  7.455E+00  6.709E-02  1.682E+00
   1    5    8     3     5    1.0456E+00  1.5790E-01   8.8768E-01  0.000E+00  0.000E+00  0.000E+00  1.06362E+03  1.164E+00  6.655E+00  4.991E-02  1.582E+00
   1    6    8     3     6    8.8768E-01  5.5980E-02   8.3170E-01  0.000E+00  0.000E+00  0.000E+00  1.06158E+03  1.036E+00  6.145E+00  1.844E-02  1.518E+00
   1    5   10     4     1    1.0000E+01  9.0919E-02   9.9091E+00  0.000E+00  0.000E+00  0.000E+00  1.07836E+03  6.368E-01  1.000E+01  2.500E-02  1.212E+00
   1    5    9     4     2    9.9091E+00  1.8158E-01   9.7275E+00  0.000E+00  0.000E+00  0.000E+00  1.07154E+03  6.315E-01  1.000E+01  5.000E-02  1.211E+00
   1    6    8     4     3    9.7275E+00  1.2689E-01   9.6006E+00  0.000E+00  0.000E+00  0.000E+00  1.06381E+03  6.256E-01  1.000E+01  3.500E-02  1.209E+00
   1    6    8     5     1    1.0432E+01  2.2686E-01   1.0205E+01  0.000E+00  0.000E+00  0.000E+00  1.05868E+03  6.790E-01  1.542E+01  6.166E-02  1.226E+00
   1    7    7     5     2    1.0205E+01  2.7894E-01   9.9265E+00  0.000E+00  0.000E+00  0.000E+00  1.05417E+03  6.732E-01  1.519E+01  7.594E-02  1.224E+00
   1    8    7     5     3    9.9265E+00  1.9221E-01   9.7343E+00  0.000E+00  0.000E+00  0.000E+00  1.04992E+03  6.676E-01  1.497E+01  5.241E-02  1.223E+00
   1    8    6     5     4    9.7343E+00  1.3577E-01   9.5985E+00  0.000E+00  0.000E+00  0.000E+00  1.04691E+03  6.637E-01  1.482E+01  3.706E-02  1.221E+00
   1    9    6     6     1    1.3038E+01  2.2931E-01   1.2808E+01  0.000E+00  0.000E+00  0.000E+00  1.04355E+03  8.218E-01  1.200E+01  6.000E-02  1.274E+00
   1   10    7     6     2    1.2808E+01  2.2878E-01   1.2580E+01  0.000E+00  0.000E+00  0.000E+00  1.03899E+03  8.131E-01  1.200E+01  6.000E-02  1.271E+00
   1   11    7     6     3    1.2580E+01  2.2826E-01   1.2351E+01  0.000E+00  0.000E+00  0.000E+00  1.03444E+03  8.043E-01  1.200E+01  6.000E-02  1.268E+00
   1   12    7     6     4    1.2351E+01  2.2772E-01   1.2124E+01  0.000E+00  0.000E+00  0.000E+00  1.02989E+03  7.954E-01  1.200E+01  6.000E-02  1.265E+00
   1   13    7     6     5    1.2124E+01 -1.9730E-02   1.2143E+01  0.000E+00  0.000E+00  0.000E+00  1.02670E+03  7.913E-01  1.200E+01  2.400E-01 -2.740E-02
   1   14    9     7     1    1.5000E+02  1.3700E+00   1.4863E+02  0.000E+00  0.000E+00  0.000E+00  1.03987E+03  2.288E+00  5.529E+01  5.593E-01  8.165E-01
   1   13    8     7     2    1.4863E+02  1.9271E+00   1.4670E+02  0.000E+00  0.000E+00  0.000E+00  1.03478E+03  2.279E+00  5.525E+01  6.148E-01  1.045E+00
   1   13    7     7     3    1.4670E+02  1.6228E+00   1.4508E+02  0.000E+00  0.000E+00  0.000E+00  1.02969E+03  2.269E+00  5.521E+01  5.584E-01  9.687E-01
   1   13    6     8     1    1.5722E+02  1.0057E+00   1.5622E+02  0.000E+00  0.000E+00  0.000E+00  1.02474E+03  2.864E+00  4.152E+01  4.231E-01  7.923E-01
   1   13    5     8     2    1.5622E+02  2.7105E-01   1.5595E+02  0.000E+00  0.000E+00  0.000E+00  1.01848E+03  2.859E+00  4.146E+01  4.225E-01  2.139E-01
   1   13    4     8     3    1.5595E+02 -2.0796E+00   1.5803E+02  0.000E+00  0.000E+00  0.000E+00  1.01224E+03  2.865E+00  4.155E+01  4.234E+00 -1.637E-01
   1   13    3     8     4    1.5803E+02 -3.4815E+00   1.6151E+02  0.000E+00  0.000E+00  0.000E+00  1.00601E+03  2.884E+00  4.182E+01  4.262E+00 -2.723E-01
   1   13    2     8     5    1.6151E+02 -2.5448E+00   1.6405E+02  0.000E+00  0.000E+00  0.000E+00  9.99780E+02  2.905E+00  4.212E+01  4.292E+00 -1.976E-01
   1   13    1     8     6    1.6405E+02 -1.9744E+00   1.6603E+02  0.000E+00  0.000E+00  0.000E+00  9.94795E+02  2.920E+00  4.233E+01  2.588E+00 -2.543E-01
   1    8    6     9     1    0.0000E+00  0.0000E+00   0.0000E+00  0.000E+00  0.000E+00  0.000E+00  1.07875E+03  0.000E+00  4.000E+00  0.000E+00  1.000E+00
   1    8    5     9     2    0.0000E+00  0.0000E+00   0.0000E+00  0.000E+00  0.000E+00  0.000E+00  1.07825E+03  0.000E+00  4.000E+00  0.000E+00  1.000E+00





UNSATURATED ZONE PACKAGE VOLUMETRIC BUDGET FOR  TIME STEP    30 STRESS PERIOD   14
  ------------------------------------------------------------------------------



     CUMULATIVE VOLUMES      L**3       RATES FOR THIS TIME STEP      L**3/T
     ------------------                 ------------------------

           IN:                                      IN:
           ---                                      ---
        INFILTRATION =   654227637.2294          INFILTRATION =           0.8475

          OUT:                                     OUT:
          ----                                     ----
              UZF ET =   432067328.8457                UZF ET =           0.7500
        UZF RECHARGE =       73224.0000          UZF RECHARGE =       0.0000E+00

            IN - OUT =   222087084.3837              IN - OUT =       9.7500E-02

          STORAGE:                                 STORAGE:
          --------                                 --------
      STORAGE CHANGE =   222087293.6895        STORAGE CHANGE =       9.7500E-02

 PERCENT DISCREPANCY IS DIFFERENCE BETWEEN IN-OUT MINUS CHANGE IN STORAGE
 DIVIDED BY THE AVERAGE OF IN AND OUT TIMES 100

 PERCENT DISCREPANCY =          -0.00     PERCENT DISCREPANCY =           0.00






1
  VOLUMETRIC BUDGET FOR AGRICULTURAL FIELDS AT  END OF TIME STEP   30, STRESS PERIOD  14
  ------------------------------------------------------------------------------

     CUMULATIVE VOLUMES      L**3       RATES FOR THIS TIME STEP      L**3/T
     ------------------                 ------------------------

           IN:                                      IN:
           ---                                      ---
               AG WELLS  =   405755808.0000                 AG WELLS  =           0.0000
      DIVERSION SEGMENTS =   219481136.0000        DIVERSION SEGMENTS =           0.0000
       IRRIGATION PONDS  =           0.0000         IRRIGATION PONDS  =           0.0000
           GW IRRIGATION =           0.0000             GW IRRIGATION =           0.0000
           SW IRRIGATION =           0.0000             SW IRRIGATION =           0.0000
        SYSTEM LOSSES GW =           0.0000          SYSTEM LOSSES GW =           0.0000
        SYSTEM LOSSES SW =           0.0000          SYSTEM LOSSES SW =           0.0000

                TOTAL IN =   625236928.0000                  TOTAL IN =           0.0000

          OUT:                                     OUT:
          ----                                     ----
               AG WELLS  =           0.0000                 AG WELLS  =           0.0000
      DIVERSION SEGMENTS =           0.0000        DIVERSION SEGMENTS =           0.0000
       IRRIGATION PONDS  =           0.0000         IRRIGATION PONDS  =           0.0000
           GW IRRIGATION =   405755808.0000             GW IRRIGATION =           0.0000
           SW IRRIGATION =   219485376.0000             SW IRRIGATION =           0.0000
        SYSTEM LOSSES GW =           0.0000          SYSTEM LOSSES GW =           0.0000
        SYSTEM LOSSES SW =           0.0000          SYSTEM LOSSES SW =           0.0000

               TOTAL OUT =   625241216.0000                 TOTAL OUT =           0.0000

                IN - OUT =       -4288.0000                  IN - OUT =           0.0000

     PERCENT DISCREPANCY =          -0.00         PERCENT DISCREPANCY =           0.00



1
  VOLUMETRIC BUDGET FOR ENTIRE MODEL AT END OF TIME STEP   30, STRESS PERIOD  14
  ------------------------------------------------------------------------------

     CUMULATIVE VOLUMES      L**3       RATES FOR THIS TIME STEP      L**3/T
     ------------------                 ------------------------

           IN:                                      IN:
           ---                                      ---
             STORAGE     =   640411776.0000               STORAGE     =           5.9039
       CONSTANT HEAD     =           0.0000         CONSTANT HEAD     =           0.0000
     HEAD DEP BOUNDS     =     9869793.0000       HEAD DEP BOUNDS     =           0.2881
      STREAM LEAKAGE     =   400184096.0000        STREAM LEAKAGE     =          11.1980
        UZF RECHARGE     =       73223.9531          UZF RECHARGE     =           0.0000
               GW ET     =           0.0000                 GW ET     =           0.0000
     SURFACE LEAKAGE     =           0.0000       SURFACE LEAKAGE     =           0.0000
           AG WELLS      =           0.0000             AG WELLS      =           0.0000

                TOTAL IN =  1050538880.0000                  TOTAL IN =          17.3900

          OUT:                                     OUT:
          ----                                     ----
             STORAGE     =   281648096.0000               STORAGE     =           7.0029
       CONSTANT HEAD     =           0.0000         CONSTANT HEAD     =           0.0000
     HEAD DEP BOUNDS     =     9868441.0000       HEAD DEP BOUNDS     =           0.2872
      STREAM LEAKAGE     =   353268544.0000        STREAM LEAKAGE     =          10.0999
        UZF RECHARGE     =           0.0000          UZF RECHARGE     =           0.0000
               GW ET     =           0.0000                 GW ET     =           0.0000
     SURFACE LEAKAGE     =           0.0000       SURFACE LEAKAGE     =           0.0000
           AG WELLS      =   405755808.0000             AG WELLS      =           0.0000

               TOTAL OUT =  1050540928.0000                 TOTAL OUT =          17.3900

                IN - OUT =       -2048.0000                  IN - OUT =       7.6294E-06

     PERCENT DISCREPANCY =          -0.00         PERCENT DISCREPANCY =           0.00






         TIME SUMMARY AT END OF TIME STEP   30 IN STRESS PERIOD   14
                    SECONDS     MINUTES      HOURS       DAYS        YEARS
                    -----------------------------------------------------------
   TIME STEP LENGTH  87667.      1461.1      24.352      1.0147     2.77799E-03
 STRESS PERIOD TIME 2.63000E+06  43833.      730.56      30.440     8.33397E-02
         TOTAL TIME 3.42763E+07 5.71272E+05  9521.2      396.72      1.0862    
1
1
                            STRESS PERIOD NO.   15, LENGTH =   2630000.    
                            -----------------------------------------------

                              NUMBER OF TIME STEPS =    30

                               MULTIPLIER FOR DELT =     1.000

                            INITIAL TIME STEP SIZE =   87666.66    

 REUSING NON-PARAMETER GHB CELLS FROM LAST STRESS PERIOD

      2 GHB CELLS

 REUSING STREAM SEGMENT DATA FROM LAST STRESS PERIOD



            AREAL INFILTRATION RATE
 READING ON UNIT   19 WITH FORMAT: (FREE)              

            1           2           3           4           5           6           7           8           9          10
 ........................................................................................................................
   1   1.0000E-10  2.0000E-10   0.000       0.000       0.000       0.000       0.000       0.000       0.000       0.000    
   2   2.0000E-10  1.0000E-10  2.0000E-10   0.000       0.000      8.0000E-10  8.0000E-10  5.0000E-10   0.000       0.000    
   3    0.000      5.0000E-10  1.0000E-10  1.0000E-10  8.0000E-10  8.0000E-10  5.0000E-10  5.0000E-10   0.000       0.000    
   4   8.0000E-10  5.0000E-10  1.0000E-10  1.0000E-10  1.0000E-10  1.0000E-10  1.0000E-10  1.0000E-10  2.0000E-10   0.000    
   5   8.0000E-10  5.0000E-10  1.0000E-10  1.0000E-10  1.0000E-10  1.0000E-10  1.0000E-10  1.0000E-10  1.0000E-10  1.0000E-10
   6   8.0000E-10  5.0000E-10  5.0000E-10  2.0000E-10  2.0000E-10  1.0000E-10  1.0000E-10  1.0000E-10  1.0000E-10  5.0000E-10
   7   8.0000E-10  5.0000E-10  5.0000E-10  2.0000E-10  2.0000E-10  1.0000E-10  1.0000E-10  2.0000E-10  2.0000E-10   0.000    
   8    0.000      5.0000E-10  5.0000E-10  2.0000E-10  2.0000E-10  1.0000E-10  1.0000E-10  2.0000E-10  5.0000E-10   0.000    
   9    0.000      5.0000E-10  5.0000E-10  2.0000E-10  2.0000E-10  1.0000E-10  1.0000E-10  2.0000E-10  5.0000E-10   0.000    
  10    0.000      5.0000E-10  5.0000E-10  2.0000E-10  2.0000E-10  1.0000E-10  1.0000E-10  2.0000E-10  5.0000E-10  8.0000E-10
  11    0.000      1.0000E-10  1.0000E-10  1.0000E-10  1.0000E-10  1.0000E-10  1.0000E-10  2.0000E-10  5.0000E-10   0.000    
  12   1.0000E-10  1.0000E-10  1.0000E-10  1.0000E-10  1.0000E-10  1.0000E-10  1.0000E-10  1.0000E-10  2.0000E-10   0.000    
  13   1.0000E-10  1.0000E-10  2.0000E-10  2.0000E-10  2.0000E-10  2.0000E-10  2.0000E-10  1.0000E-10  1.0000E-10   0.000    
  14    0.000      2.0000E-10  5.0000E-10  5.0000E-10  5.0000E-10  5.0000E-10  5.0000E-10  2.0000E-10  1.0000E-10   0.000    
  15    0.000       0.000      8.0000E-10  8.0000E-10  8.0000E-10  8.0000E-10   0.000       0.000       0.000       0.000    

                  ET RATE =  5.000000E-10

 USING ET EXTINCTION DEPTH FROM PREVIOUS STRESS PERIOD. CURRENT PERIOD IS:      15

 USING EXTINCTION WATER CONTENT FROM PREVIOUS STRESS PERIOD. CURRENT PERIOD IS:      15

 USING AIR ENTRY PRESSURE FROM PREVIOUS STRESS PERIOD. CURRENT PERIOD IS:      15

 USING ROOT PRESSURE HEAD FROM PREVIOUS STRESS PERIOD. CURRENT PERIOD IS:      15

 USING ROOT ACTIVITY FROM PREVIOUS STRESS PERIOD. CURRENT PERIOD IS:      15

 PROCESSING AG STRESS PERIOD DATA

 READING AG STRESS PERIOD DATA

 READING IRRIGATION SEGMENT

 READING IRRIGATION WELL

 READING SUPPLEMENTAL WELL

 NO IRRPOND OR REUSING IRRPOND DATA FROM LAST STRESS PERIOD

 END PROCESSING AG STRESS PERIOD DATA OPTIONS
 
 SOLVING FOR HEAD 
                                                   Max.-Head-Change                         Max.-Flux-Residual
  Residual-Control   Outer-Iter.   Inner-Iter.     Column Row Layer    Maximum-Head-Change  Column Row Layer    Maximum-Flux-Residual          L2-NORM 
          0                 1           2             4    7     1       0.1610001126E-01       4    7    1         0.8448610610E+00      0.2060115151E+01
          0                 2           2             4    7     1      -0.1566097346E-02       4    7    1        -0.8448646104E-01      0.2060095422E+00
          0                 3           1             4    7     1       0.1066453744E-03       4    7    1         0.5914051470E-02      0.1442046727E-01
          0                 4           1             4    7     1      -0.4243522185E-05       4    7    1        -0.2418850627E-03      0.5897889606E-03

    ------------------------------------------------
       NWT REQUIRED            4 OUTER ITERATIONS 
       AND A TOTAL OF          6 INNER ITERATIONS.
    ------------------------------------------------

 NO OUTPUT CONTROL FOR STRESS PERIOD   15   TIME STEP    1
 
 SOLVING FOR HEAD 
                                                   Max.-Head-Change                         Max.-Flux-Residual
  Residual-Control   Outer-Iter.   Inner-Iter.     Column Row Layer    Maximum-Head-Change  Column Row Layer    Maximum-Flux-Residual          L2-NORM 
          0                 1           2             4    7     1       0.1594186783E-01       4    7    1         0.8365242047E+00      0.2042436679E+01
          0                 2           2             4    7     1      -0.1550761136E-02       4    7    1        -0.8365276771E-01      0.2043005732E+00
          0                 3           1             4    7     1       0.1056010367E-03       4    7    1         0.5855693006E-02      0.1430097527E-01
          0                 4           1             4    7     1      -0.4201966877E-05       4    7    1        -0.2394981923E-03      0.5849111460E-03

    ------------------------------------------------
       NWT REQUIRED            4 OUTER ITERATIONS 
       AND A TOTAL OF          6 INNER ITERATIONS.
    ------------------------------------------------

 NO OUTPUT CONTROL FOR STRESS PERIOD   15   TIME STEP    2
 
 SOLVING FOR HEAD 
                                                   Max.-Head-Change                         Max.-Flux-Residual
  Residual-Control   Outer-Iter.   Inner-Iter.     Column Row Layer    Maximum-Head-Change  Column Row Layer    Maximum-Flux-Residual          L2-NORM 
          0                 1           2             4    7     1       0.1578602928E-01       4    7    1         0.8283148192E+00      0.2025314545E+01
          0                 2           2             4    7     1      -0.1535555247E-02       4    7    1        -0.8283182191E-01      0.2025312499E+00
          0                 3           1             4    7     1       0.1045655727E-03       4    7    1         0.5798226825E-02      0.1417716657E-01
          0                 4           1             4    7     1      -0.4160764551E-05       4    7    1        -0.2371478145E-03      0.5798460028E-03

    ------------------------------------------------
       NWT REQUIRED            4 OUTER ITERATIONS 
       AND A TOTAL OF          6 INNER ITERATIONS.
    ------------------------------------------------

 NO OUTPUT CONTROL FOR STRESS PERIOD   15   TIME STEP    3
 
 SOLVING FOR HEAD 
                                                   Max.-Head-Change                         Max.-Flux-Residual
  Residual-Control   Outer-Iter.   Inner-Iter.     Column Row Layer    Maximum-Head-Change  Column Row Layer    Maximum-Flux-Residual          L2-NORM 
          0                 1           2             4    7     1       0.1563232296E-01       4    7    1         0.8202152967E+00      0.2009095612E+01
          0                 2           2             4    7     1      -0.1520603706E-02       4    7    1        -0.8202186244E-01      0.2009094537E+00
          0                 3           1             4    7     1       0.1035474292E-03       4    7    1         0.5741529703E-02      0.1406363329E-01
          0                 4           1             4    7     1      -0.4120252070E-05       4    7    1        -0.2348289056E-03      0.5751986091E-03

    ------------------------------------------------
       NWT REQUIRED            4 OUTER ITERATIONS 
       AND A TOTAL OF          6 INNER ITERATIONS.
    ------------------------------------------------

 NO OUTPUT CONTROL FOR STRESS PERIOD   15   TIME STEP    4
 
 SOLVING FOR HEAD 
                                                   Max.-Head-Change                         Max.-Flux-Residual
  Residual-Control   Outer-Iter.   Inner-Iter.     Column Row Layer    Maximum-Head-Change  Column Row Layer    Maximum-Flux-Residual          L2-NORM 
          0                 1           2             4    7     1       0.1548079811E-01       4    7    1         0.8122311480E+00      0.1993084342E+01
          0                 2           2             4    7     1      -0.1505864365E-02       4    7    1        -0.8122344053E-01      0.1993082611E+00
          0                 3           1             4    7     1       0.1025437360E-03       4    7    1         0.5685640214E-02      0.1395154519E-01
          0                 4           1             4    7     1      -0.4080314190E-05       4    7    1        -0.2325430371E-03      0.5706159757E-03

    ------------------------------------------------
       NWT REQUIRED            4 OUTER ITERATIONS 
       AND A TOTAL OF          6 INNER ITERATIONS.
    ------------------------------------------------

 NO OUTPUT CONTROL FOR STRESS PERIOD   15   TIME STEP    5
 
 SOLVING FOR HEAD 
                                                   Max.-Head-Change                         Max.-Flux-Residual
  Residual-Control   Outer-Iter.   Inner-Iter.     Column Row Layer    Maximum-Head-Change  Column Row Layer    Maximum-Flux-Residual          L2-NORM 
          0                 1           2             4    7     1       0.1533128091E-01       4    7    1         0.8043527816E+00      0.1977273348E+01
          0                 2           2             4    7     1      -0.1491320316E-02       4    7    1        -0.8043559700E-01      0.1977270949E+00
          0                 3           1             4    7     1       0.1015533410E-03       4    7    1         0.5630491216E-02      0.1384085499E-01
          0                 4           1             4    7     1      -0.4040905091E-05       4    7    1        -0.2302874148E-03      0.5660880015E-03

    ------------------------------------------------
       NWT REQUIRED            4 OUTER ITERATIONS 
       AND A TOTAL OF          6 INNER ITERATIONS.
    ------------------------------------------------

 NO OUTPUT CONTROL FOR STRESS PERIOD   15   TIME STEP    6
 
 SOLVING FOR HEAD 
                                                   Max.-Head-Change                         Max.-Flux-Residual
  Residual-Control   Outer-Iter.   Inner-Iter.     Column Row Layer    Maximum-Head-Change  Column Row Layer    Maximum-Flux-Residual          L2-NORM 
          0                 1           2             4    7     1       0.1518400649E-01       4    7    1         0.7965931564E+00      0.1961668299E+01
          0                 2           2             4    7     1      -0.1476994431E-02       4    7    1        -0.7965962778E-01      0.1961665343E+00
          0                 3           1             4    7     1       0.1005778024E-03       4    7    1         0.5576173404E-02      0.1373161437E-01
          0                 4           1             4    7     1      -0.4002087633E-05       4    7    1        -0.2280658321E-03      0.5616180585E-03

    ------------------------------------------------
       NWT REQUIRED            4 OUTER ITERATIONS 
       AND A TOTAL OF          6 INNER ITERATIONS.
    ------------------------------------------------

 NO OUTPUT CONTROL FOR STRESS PERIOD   15   TIME STEP    7
 
 SOLVING FOR HEAD 
                                                   Max.-Head-Change                         Max.-Flux-Residual
  Residual-Control   Outer-Iter.   Inner-Iter.     Column Row Layer    Maximum-Head-Change  Column Row Layer    Maximum-Flux-Residual          L2-NORM 
          0                 1           2             4    7     1       0.1503866068E-01       4    7    1         0.7889351678E+00      0.1946255531E+01
          0                 2           2             4    7     1      -0.1462856150E-02       4    7    1        -0.7889382237E-01      0.1946251948E+00
          0                 3           1             4    7     1       0.9961503857E-04       4    7    1         0.5522567061E-02      0.1362370663E-01

    ------------------------------------------------
       NWT REQUIRED            3 OUTER ITERATIONS 
       AND A TOTAL OF          5 INNER ITERATIONS.
    ------------------------------------------------

 NO OUTPUT CONTROL FOR STRESS PERIOD   15   TIME STEP    8
 
 SOLVING FOR HEAD 
                                                   Max.-Head-Change                         Max.-Flux-Residual
  Residual-Control   Outer-Iter.   Inner-Iter.     Column Row Layer    Maximum-Head-Change  Column Row Layer    Maximum-Flux-Residual          L2-NORM 
          0                 1           2             4    7     1       0.1489529590E-01       4    7    1         0.7813818344E+00      0.1931032915E+01
          0                 2           2             4    7     1      -0.1448910570E-02       4    7    1        -0.7813848263E-01      0.1931028738E+00
          0                 3           1             4    7     1       0.9866539725E-04       4    7    1         0.5469693312E-02      0.1351713531E-01

    ------------------------------------------------
       NWT REQUIRED            3 OUTER ITERATIONS 
       AND A TOTAL OF          5 INNER ITERATIONS.
    ------------------------------------------------

 NO OUTPUT CONTROL FOR STRESS PERIOD   15   TIME STEP    9
 
 SOLVING FOR HEAD 
                                                   Max.-Head-Change                         Max.-Flux-Residual
  Residual-Control   Outer-Iter.   Inner-Iter.     Column Row Layer    Maximum-Head-Change  Column Row Layer    Maximum-Flux-Residual          L2-NORM 
          0                 1           2             4    7     1       0.1475392241E-01       4    7    1         0.7739339136E+00      0.1915998765E+01
          0                 2           2             4    7     1      -0.1435158692E-02       4    7    1        -0.7739368429E-01      0.1915994187E+00
          0                 3           1             4    7     1       0.9772894643E-04       4    7    1         0.5417557476E-02      0.1341189571E-01

    ------------------------------------------------
       NWT REQUIRED            3 OUTER ITERATIONS 
       AND A TOTAL OF          5 INNER ITERATIONS.
    ------------------------------------------------

 NO OUTPUT CONTROL FOR STRESS PERIOD   15   TIME STEP   10
 
 SOLVING FOR HEAD 
                                                   Max.-Head-Change                         Max.-Flux-Residual
  Residual-Control   Outer-Iter.   Inner-Iter.     Column Row Layer    Maximum-Head-Change  Column Row Layer    Maximum-Flux-Residual          L2-NORM 
          0                 1           2             4    7     1       0.1461450684E-01       4    7    1         0.7665892379E+00      0.1901153216E+01
          0                 2           2             4    7     1      -0.1421597268E-02       4    7    1        -0.7665921061E-01      0.1901147858E+00
          0                 3           1             4    7     1       0.9680546449E-04       4    7    1         0.5366144346E-02      0.1330796105E-01

    ------------------------------------------------
       NWT REQUIRED            3 OUTER ITERATIONS 
       AND A TOTAL OF          5 INNER ITERATIONS.
    ------------------------------------------------

 NO OUTPUT CONTROL FOR STRESS PERIOD   15   TIME STEP   11
 
 SOLVING FOR HEAD 
                                                   Max.-Head-Change                         Max.-Flux-Residual
  Residual-Control   Outer-Iter.   Inner-Iter.     Column Row Layer    Maximum-Head-Change  Column Row Layer    Maximum-Flux-Residual          L2-NORM 
          0                 1           2             4    7     1       0.1447687763E-01       4    7    1         0.7593387517E+00      0.1886491466E+01
          0                 2           2             4    7     1      -0.1408209609E-02       4    7    1        -0.7593415601E-01      0.1886485549E+00
          0                 3           1             4    7     1       0.9589381537E-04       4    7    1         0.5315390563E-02      0.1320531493E-01

    ------------------------------------------------
       NWT REQUIRED            3 OUTER ITERATIONS 
       AND A TOTAL OF          5 INNER ITERATIONS.
    ------------------------------------------------

 NO OUTPUT CONTROL FOR STRESS PERIOD   15   TIME STEP   12
 
 SOLVING FOR HEAD 
                                                   Max.-Head-Change                         Max.-Flux-Residual
  Residual-Control   Outer-Iter.   Inner-Iter.     Column Row Layer    Maximum-Head-Change  Column Row Layer    Maximum-Flux-Residual          L2-NORM 
          0                 1           2             4    7     1       0.1434126908E-01       4    7    1         0.7521955353E+00      0.1872003142E+01
          0                 2           2             4    7     1      -0.1395018508E-02       4    7    1        -0.7521982856E-01      0.1871996999E+00
          0                 3           1             4    7     1       0.9499555120E-04       4    7    1         0.5265387674E-02      0.1310390746E-01

    ------------------------------------------------
       NWT REQUIRED            3 OUTER ITERATIONS 
       AND A TOTAL OF          5 INNER ITERATIONS.
    ------------------------------------------------

 NO OUTPUT CONTROL FOR STRESS PERIOD   15   TIME STEP   13
 
 SOLVING FOR HEAD 
                                                   Max.-Head-Change                         Max.-Flux-Residual
  Residual-Control   Outer-Iter.   Inner-Iter.     Column Row Layer    Maximum-Head-Change  Column Row Layer    Maximum-Flux-Residual          L2-NORM 
          0                 1           2             4    7     1       0.1420751044E-01       4    7    1         0.7451497612E+00      0.1857703413E+01
          0                 2           2             4    7     1      -0.1382175624E-02       4    7    1        -0.7454082870E-01      0.1857767437E+00
          0                 3           1             4    7     1       0.9412099624E-04       4    7    1         0.5217857531E-02      0.1300429862E-01

    ------------------------------------------------
       NWT REQUIRED            3 OUTER ITERATIONS 
       AND A TOTAL OF          5 INNER ITERATIONS.
    ------------------------------------------------

 NO OUTPUT CONTROL FOR STRESS PERIOD   15   TIME STEP   14
 
 SOLVING FOR HEAD 
                                                   Max.-Head-Change                         Max.-Flux-Residual
  Residual-Control   Outer-Iter.   Inner-Iter.     Column Row Layer    Maximum-Head-Change  Column Row Layer    Maximum-Flux-Residual          L2-NORM 
          0                 1           2             4    7     1       0.1407254926E-01       4    7    1         0.7381908853E+00      0.1843569115E+01
          0                 2           2             4    7     1      -0.1368879481E-02       4    7    1        -0.7381936990E-01      0.1843562172E+00
          0                 3           1             4    7     1       0.9321557933E-04       4    7    1         0.5167355449E-02      0.1290485803E-01

    ------------------------------------------------
       NWT REQUIRED            3 OUTER ITERATIONS 
       AND A TOTAL OF          5 INNER ITERATIONS.
    ------------------------------------------------

 NO OUTPUT CONTROL FOR STRESS PERIOD   15   TIME STEP   15
 
 SOLVING FOR HEAD 
                                                   Max.-Head-Change                         Max.-Flux-Residual
  Residual-Control   Outer-Iter.   Inner-Iter.     Column Row Layer    Maximum-Head-Change  Column Row Layer    Maximum-Flux-Residual          L2-NORM 
          0                 1           2             4    7     1       0.1393963280E-01       4    7    1         0.7311803080E+00      0.1829564451E+01
          0                 2           2             4    7     1      -0.1355950239E-02       4    7    1        -0.7311830566E-01      0.1829557009E+00
          0                 3           1             4    7     1       0.9233514659E-04       4    7    1         0.5118280993E-02      0.1280682135E-01

    ------------------------------------------------
       NWT REQUIRED            3 OUTER ITERATIONS 
       AND A TOTAL OF          5 INNER ITERATIONS.
    ------------------------------------------------

 NO OUTPUT CONTROL FOR STRESS PERIOD   15   TIME STEP   16
 
 SOLVING FOR HEAD 
                                                   Max.-Head-Change                         Max.-Flux-Residual
  Residual-Control   Outer-Iter.   Inner-Iter.     Column Row Layer    Maximum-Head-Change  Column Row Layer    Maximum-Flux-Residual          L2-NORM 
          0                 1           2             4    7     1       0.1380881363E-01       4    7    1         0.7242814422E+00      0.1815731100E+01
          0                 2           2             4    7     1      -0.1343225008E-02       4    7    1        -0.7242841281E-01      0.1815723356E+00
          0                 3           1             4    7     1       0.9146860658E-04       4    7    1         0.5069988543E-02      0.1270998689E-01

    ------------------------------------------------
       NWT REQUIRED            3 OUTER ITERATIONS 
       AND A TOTAL OF          5 INNER ITERATIONS.
    ------------------------------------------------

 NO OUTPUT CONTROL FOR STRESS PERIOD   15   TIME STEP   17
 
 SOLVING FOR HEAD 
                                                   Max.-Head-Change                         Max.-Flux-Residual
  Residual-Control   Outer-Iter.   Inner-Iter.     Column Row Layer    Maximum-Head-Change  Column Row Layer    Maximum-Flux-Residual          L2-NORM 
          0                 1           2             4    7     1       0.1367990630E-01       4    7    1         0.7174839902E+00      0.1802071598E+01
          0                 2           2             4    7     1      -0.1330685750E-02       4    7    1        -0.7174866153E-01      0.1802063420E+00
          0                 3           1             4    7     1       0.9061473060E-04       4    7    1         0.5022405994E-02      0.1261436968E-01

    ------------------------------------------------
       NWT REQUIRED            3 OUTER ITERATIONS 
       AND A TOTAL OF          5 INNER ITERATIONS.
    ------------------------------------------------

 NO OUTPUT CONTROL FOR STRESS PERIOD   15   TIME STEP   18
 
 SOLVING FOR HEAD 
                                                   Max.-Head-Change                         Max.-Flux-Residual
  Residual-Control   Outer-Iter.   Inner-Iter.     Column Row Layer    Maximum-Head-Change  Column Row Layer    Maximum-Flux-Residual          L2-NORM 
          0                 1           2             4    7     1       0.1355273071E-01       4    7    1         0.7107783373E+00      0.1788572162E+01
          0                 2           2             4    7     1      -0.1318314944E-02       4    7    1        -0.7107809028E-01      0.1788563472E+00
          0                 3           1             4    7     1       0.8977232522E-04       4    7    1         0.4975466032E-02      0.1251985828E-01

    ------------------------------------------------
       NWT REQUIRED            3 OUTER ITERATIONS 
       AND A TOTAL OF          5 INNER ITERATIONS.
    ------------------------------------------------

 NO OUTPUT CONTROL FOR STRESS PERIOD   15   TIME STEP   19
 
 SOLVING FOR HEAD 
                                                   Max.-Head-Change                         Max.-Flux-Residual
  Residual-Control   Outer-Iter.   Inner-Iter.     Column Row Layer    Maximum-Head-Change  Column Row Layer    Maximum-Flux-Residual          L2-NORM 
          0                 1           2             4    7     1       0.1342751867E-01       4    7    1         0.7041771250E+00      0.1775236955E+01
          0                 2           2             4    7     1      -0.1306135142E-02       4    7    1        -0.7041796331E-01      0.1775221522E+00
          0                 3           1             4    7     1       0.8894292705E-04       4    7    1         0.4929257193E-02      0.1242778493E-01

    ------------------------------------------------
       NWT REQUIRED            3 OUTER ITERATIONS 
       AND A TOTAL OF          5 INNER ITERATIONS.
    ------------------------------------------------

 NO OUTPUT CONTROL FOR STRESS PERIOD   15   TIME STEP   20
 
 SOLVING FOR HEAD 
                                                   Max.-Head-Change                         Max.-Flux-Residual
  Residual-Control   Outer-Iter.   Inner-Iter.     Column Row Layer    Maximum-Head-Change  Column Row Layer    Maximum-Flux-Residual          L2-NORM 
          0                 1           2             4    7     1       0.1330408717E-01       4    7    1         0.6976703930E+00      0.1762059033E+01
          0                 2           2             4    7     1      -0.1294128540E-02       4    7    1        -0.6976728450E-01      0.1762053290E+00
          0                 3           1             4    7     1       0.8812532267E-04       4    7    1         0.4883709712E-02      0.1233482987E-01

    ------------------------------------------------
       NWT REQUIRED            3 OUTER ITERATIONS 
       AND A TOTAL OF          5 INNER ITERATIONS.
    ------------------------------------------------

 NO OUTPUT CONTROL FOR STRESS PERIOD   15   TIME STEP   21
 
 SOLVING FOR HEAD 
                                                   Max.-Head-Change                         Max.-Flux-Residual
  Residual-Control   Outer-Iter.   Inner-Iter.     Column Row Layer    Maximum-Head-Change  Column Row Layer    Maximum-Flux-Residual          L2-NORM 
          0                 1           2             4    7     1       0.1318253197E-01       4    7    1         0.6912633061E+00      0.1749048234E+01
          0                 2           2             4    7     1      -0.1282304453E-02       4    7    1        -0.6912657039E-01      0.1749038657E+00
          0                 3           1             4    7     1       0.8732014659E-04       4    7    1         0.4838859745E-02      0.1224316076E-01

    ------------------------------------------------
       NWT REQUIRED            3 OUTER ITERATIONS 
       AND A TOTAL OF          5 INNER ITERATIONS.
    ------------------------------------------------

 NO OUTPUT CONTROL FOR STRESS PERIOD   15   TIME STEP   22
 
 SOLVING FOR HEAD 
                                                   Max.-Head-Change                         Max.-Flux-Residual
  Residual-Control   Outer-Iter.   Inner-Iter.     Column Row Layer    Maximum-Head-Change  Column Row Layer    Maximum-Flux-Residual          L2-NORM 
          0                 1           2             4    7     1       0.1306253599E-01       4    7    1         0.6849388467E+00      0.1736179372E+01
          0                 2           2             4    7     1      -0.1270632037E-02       4    7    1        -0.6849411913E-01      0.1736169417E+00
          0                 3           1             4    7     1       0.8652529929E-04       4    7    1         0.4794588194E-02      0.1215308499E-01

    ------------------------------------------------
       NWT REQUIRED            3 OUTER ITERATIONS 
       AND A TOTAL OF          5 INNER ITERATIONS.
    ------------------------------------------------

 NO OUTPUT CONTROL FOR STRESS PERIOD   15   TIME STEP   23
 
 SOLVING FOR HEAD 
                                                   Max.-Head-Change                         Max.-Flux-Residual
  Residual-Control   Outer-Iter.   Inner-Iter.     Column Row Layer    Maximum-Head-Change  Column Row Layer    Maximum-Flux-Residual          L2-NORM 
          0                 1           2             4    7     1       0.1294433747E-01       4    7    1         0.6787098856E+00      0.1723469374E+01
          0                 2           2             4    7     1      -0.1259134469E-02       4    7    1        -0.6787121788E-01      0.1723459380E+00
          0                 3           1             4    7     1       0.8574235842E-04       4    7    1         0.4750985134E-02      0.1206411330E-01

    ------------------------------------------------
       NWT REQUIRED            3 OUTER ITERATIONS 
       AND A TOTAL OF          5 INNER ITERATIONS.
    ------------------------------------------------

 NO OUTPUT CONTROL FOR STRESS PERIOD   15   TIME STEP   24
 
 SOLVING FOR HEAD 
                                                   Max.-Head-Change                         Max.-Flux-Residual
  Residual-Control   Outer-Iter.   Inner-Iter.     Column Row Layer    Maximum-Head-Change  Column Row Layer    Maximum-Flux-Residual          L2-NORM 
          0                 1           2             4    7     1       0.1282762646E-01       4    7    1         0.6725594641E+00      0.1710909466E+01
          0                 2           2             4    7     1      -0.1247781595E-02       4    7    1        -0.6725617070E-01      0.1710899119E+00
          0                 3           1             4    7     1       0.8496927062E-04       4    7    1         0.4707931856E-02      0.1197619250E-01

    ------------------------------------------------
       NWT REQUIRED            3 OUTER ITERATIONS 
       AND A TOTAL OF          5 INNER ITERATIONS.
    ------------------------------------------------

 NO OUTPUT CONTROL FOR STRESS PERIOD   15   TIME STEP   25
 
 SOLVING FOR HEAD 
                                                   Max.-Head-Change                         Max.-Flux-Residual
  Residual-Control   Outer-Iter.   Inner-Iter.     Column Row Layer    Maximum-Head-Change  Column Row Layer    Maximum-Flux-Residual          L2-NORM 
          0                 1           2             4    7     1       0.1271277566E-01       4    7    1         0.6665081512E+00      0.1698496294E+01
          0                 2           2             4    7     1      -0.1236609673E-02       4    7    1        -0.6665103458E-01      0.1698485879E+00
          0                 3           1             4    7     1       0.8420850475E-04       4    7    1         0.4665572366E-02      0.1188929593E-01

    ------------------------------------------------
       NWT REQUIRED            3 OUTER ITERATIONS 
       AND A TOTAL OF          5 INNER ITERATIONS.
    ------------------------------------------------

 NO OUTPUT CONTROL FOR STRESS PERIOD   15   TIME STEP   26
 
 SOLVING FOR HEAD 
                                                   Max.-Head-Change                         Max.-Flux-Residual
  Residual-Control   Outer-Iter.   Inner-Iter.     Column Row Layer    Maximum-Head-Change  Column Row Layer    Maximum-Flux-Residual          L2-NORM 
          0                 1           2             4    7     1       0.1259933604E-01       4    7    1         0.6605313026E+00      0.1686226027E+01
          0                 2           2             4    7     1      -0.1225575021E-02       4    7    1        -0.6605334496E-01      0.1686215324E+00
          0                 3           1             4    7     1       0.8345708699E-04       4    7    1         0.4623734127E-02      0.1180340076E-01

    ------------------------------------------------
       NWT REQUIRED            3 OUTER ITERATIONS 
       AND A TOTAL OF          5 INNER ITERATIONS.
    ------------------------------------------------

 NO OUTPUT CONTROL FOR STRESS PERIOD   15   TIME STEP   27
 
 SOLVING FOR HEAD 
                                                   Max.-Head-Change                         Max.-Flux-Residual
  Residual-Control   Outer-Iter.   Inner-Iter.     Column Row Layer    Maximum-Head-Change  Column Row Layer    Maximum-Flux-Residual          L2-NORM 
          0                 1           2             4    7     1       0.1248755084E-01       4    7    1         0.6546422780E+00      0.1674105591E+01
          0                 2           2             4    7     1      -0.1214701300E-02       4    7    1        -0.6546443791E-01      0.1674094492E+00
          0                 3           1             4    7     1       0.8271662697E-04       4    7    1         0.4582510630E-02      0.1171855233E-01

    ------------------------------------------------
       NWT REQUIRED            3 OUTER ITERATIONS 
       AND A TOTAL OF          5 INNER ITERATIONS.
    ------------------------------------------------

 NO OUTPUT CONTROL FOR STRESS PERIOD   15   TIME STEP   28
 
 SOLVING FOR HEAD 
                                                   Max.-Head-Change                         Max.-Flux-Residual
  Residual-Control   Outer-Iter.   Inner-Iter.     Column Row Layer    Maximum-Head-Change  Column Row Layer    Maximum-Flux-Residual          L2-NORM 
          0                 1           2             4    7     1       0.1237732031E-01       4    7    1         0.6488317032E+00      0.1671772021E+01
          0                 2           2             4    7     1      -0.1203978809E-02       4    7    1        -0.6488337586E-01      0.1709681316E+00
          0                 3           1             4    7     1       0.8198646531E-04       4    7    1         0.4541836337E-02      0.1196067461E-01

    ------------------------------------------------
       NWT REQUIRED            3 OUTER ITERATIONS 
       AND A TOTAL OF          5 INNER ITERATIONS.
    ------------------------------------------------

 NO OUTPUT CONTROL FOR STRESS PERIOD   15   TIME STEP   29
 
 SOLVING FOR HEAD 
                                                   Max.-Head-Change                         Max.-Flux-Residual
  Residual-Control   Outer-Iter.   Inner-Iter.     Column Row Layer    Maximum-Head-Change  Column Row Layer    Maximum-Flux-Residual          L2-NORM 
          0                 1           2             4    7     1       0.1226879329E-01       4    7    1         0.6431017370E+00      0.2002859525E+01
          0                 2           2             4    7     1      -0.1193422019E-02       4    7    1        -0.6431037463E-01      0.1985815350E+00
          0                 3           1             4    7     1       0.8126758670E-04       4    7    1         0.4501726273E-02      0.1374430237E-01

    ------------------------------------------------
       NWT REQUIRED            3 OUTER ITERATIONS 
       AND A TOTAL OF          5 INNER ITERATIONS.
    ------------------------------------------------

 NO OUTPUT CONTROL FOR STRESS PERIOD   15   TIME STEP   30



 STREAM LISTING     PERIOD     15   STEP       30

 LAYER ROW COL. STREAM  RCH.  FLOW INTO     FLOW TO   FLOW OUT OF   OVRLND.     DIRECT     STREAM       STREAM     STREAM     STREAM   STREAMBED  STREAMBED
                SEG.NO.  NO.  STRM. RCH.    AQUIFER    STRM. RCH.    RUNOFF     PRECIP       ET          HEAD       DEPTH      WIDTH   CONDCTNC.   GRADIENT

   1    1    1     1     1    3.6751E+01  2.9262E-01   3.6458E+01  0.000E+00  0.000E+00  0.000E+00  1.09435E+03  1.306E+00  1.510E+01  6.795E-02  1.435E+00
   1    2    2     1     2    3.6458E+01  4.5310E-01   3.6005E+01  0.000E+00  0.000E+00  0.000E+00  1.08936E+03  1.303E+00  1.504E+01  1.053E-01  1.434E+00
   1    3    3     1     3    3.6005E+01  3.8635E-01   3.5618E+01  0.000E+00  0.000E+00  0.000E+00  1.08372E+03  1.300E+00  1.497E+01  8.985E-02  1.433E+00
   1    3    4     1     4    3.5618E+01  3.5572E-01   3.5263E+01  0.000E+00  0.000E+00  0.000E+00  1.07870E+03  1.297E+00  1.492E+01  8.278E-02  1.432E+00
   1    4    5     2     1    3.3263E+01  3.4544E-01   3.2917E+01  0.000E+00  0.000E+00  0.000E+00  1.07336E+03  1.429E+00  1.200E+01  7.800E-02  1.476E+00
   1    5    6     2     2    3.2917E+01  2.6525E-01   3.2652E+01  0.000E+00  0.000E+00  0.000E+00  1.06793E+03  1.421E+00  1.200E+01  6.000E-02  1.474E+00
   1    6    6     2     3    3.2652E+01  2.6484E-01   3.2387E+01  0.000E+00  0.000E+00  0.000E+00  1.06321E+03  1.414E+00  1.200E+01  6.000E-02  1.471E+00
   1    7    6     2     4    3.2387E+01  2.6442E-01   3.2123E+01  0.000E+00  0.000E+00  0.000E+00  1.05848E+03  1.407E+00  1.200E+01  6.000E-02  1.469E+00
   1    8    6     2     5    3.2123E+01  2.6401E-01   3.1859E+01  0.000E+00  0.000E+00  0.000E+00  1.05376E+03  1.400E+00  1.200E+01  6.000E-02  1.467E+00
   1    3    5     3     1    2.0000E+00  2.8252E-01   1.7175E+00  0.000E+00  0.000E+00  0.000E+00  1.07555E+03  1.909E+00  9.636E+00  7.227E-02  1.955E+00
   1    3    6     3     2    1.7175E+00  2.4905E-01   1.4684E+00  0.000E+00  0.000E+00  0.000E+00  1.07264E+03  1.727E+00  8.909E+00  6.682E-02  1.864E+00
   1    3    7     3     3    1.4684E+00  1.9718E-01   1.2712E+00  0.000E+00  0.000E+00  0.000E+00  1.06987E+03  1.555E+00  8.218E+00  5.547E-02  1.777E+00
   1    4    8     3     4    1.2712E+00  2.2567E-01   1.0456E+00  0.000E+00  0.000E+00  0.000E+00  1.06682E+03  1.364E+00  7.455E+00  6.709E-02  1.682E+00
   1    5    8     3     5    1.0456E+00  1.5790E-01   8.8768E-01  0.000E+00  0.000E+00  0.000E+00  1.06362E+03  1.164E+00  6.655E+00  4.991E-02  1.582E+00
   1    6    8     3     6    8.8768E-01  5.5980E-02   8.3170E-01  0.000E+00  0.000E+00  0.000E+00  1.06158E+03  1.036E+00  6.145E+00  1.844E-02  1.518E+00
   1    5   10     4     1    1.0000E+01  9.0919E-02   9.9091E+00  0.000E+00  0.000E+00  0.000E+00  1.07836E+03  6.368E-01  1.000E+01  2.500E-02  1.212E+00
   1    5    9     4     2    9.9091E+00  1.8158E-01   9.7275E+00  0.000E+00  0.000E+00  0.000E+00  1.07154E+03  6.315E-01  1.000E+01  5.000E-02  1.211E+00
   1    6    8     4     3    9.7275E+00  1.2689E-01   9.6006E+00  0.000E+00  0.000E+00  0.000E+00  1.06381E+03  6.256E-01  1.000E+01  3.500E-02  1.209E+00
   1    6    8     5     1    1.0432E+01  2.2686E-01   1.0205E+01  0.000E+00  0.000E+00  0.000E+00  1.05868E+03  6.790E-01  1.542E+01  6.166E-02  1.226E+00
   1    7    7     5     2    1.0205E+01  2.7894E-01   9.9265E+00  0.000E+00  0.000E+00  0.000E+00  1.05417E+03  6.732E-01  1.519E+01  7.594E-02  1.224E+00
   1    8    7     5     3    9.9265E+00  1.9221E-01   9.7343E+00  0.000E+00  0.000E+00  0.000E+00  1.04992E+03  6.676E-01  1.497E+01  5.241E-02  1.223E+00
   1    8    6     5     4    9.7343E+00  1.3577E-01   9.5985E+00  0.000E+00  0.000E+00  0.000E+00  1.04691E+03  6.637E-01  1.482E+01  3.706E-02  1.221E+00
   1    9    6     6     1    4.1457E+01  2.7904E-01   4.1178E+01  0.000E+00  0.000E+00  0.000E+00  1.04438E+03  1.651E+00  1.200E+01  6.000E-02  1.550E+00
   1   10    7     6     2    4.1178E+01  2.7864E-01   4.0900E+01  0.000E+00  0.000E+00  0.000E+00  1.03983E+03  1.644E+00  1.200E+01  6.000E-02  1.548E+00
   1   11    7     6     3    4.0900E+01  2.7823E-01   4.0621E+01  0.000E+00  0.000E+00  0.000E+00  1.03527E+03  1.637E+00  1.200E+01  6.000E-02  1.546E+00
   1   12    7     6     4    4.0621E+01  2.7783E-01   4.0344E+01  0.000E+00  0.000E+00  0.000E+00  1.03072E+03  1.631E+00  1.200E+01  6.000E-02  1.544E+00
   1   13    7     6     5    4.0344E+01  1.8576E-02   4.0325E+01  0.000E+00  0.000E+00  0.000E+00  1.02754E+03  1.627E+00  1.200E+01  2.400E-02  2.580E-01
   1   14    9     7     1    1.5000E+02  1.3704E+00   1.4863E+02  0.000E+00  0.000E+00  0.000E+00  1.03987E+03  2.288E+00  5.529E+01  5.593E-01  8.168E-01
   1   13    8     7     2    1.4863E+02  1.9322E+00   1.4670E+02  0.000E+00  0.000E+00  0.000E+00  1.03478E+03  2.279E+00  5.525E+01  6.148E-01  1.048E+00
   1   13    7     7     3    1.4670E+02  1.6342E+00   1.4506E+02  0.000E+00  0.000E+00  0.000E+00  1.02969E+03  2.269E+00  5.521E+01  5.584E-01  9.755E-01
   1   13    6     8     1    1.8539E+02  1.1644E+00   1.8422E+02  0.000E+00  0.000E+00  0.000E+00  1.02492E+03  3.046E+00  4.417E+01  4.501E-01  8.623E-01
   1   13    5     8     2    1.8422E+02  3.8182E-01   1.8384E+02  0.000E+00  0.000E+00  0.000E+00  1.01867E+03  3.041E+00  4.410E+01  4.494E-01  2.832E-01
   1   13    4     8     3    1.8384E+02 -1.4270E+00   1.8527E+02  0.000E+00  0.000E+00  0.000E+00  1.01242E+03  3.045E+00  4.415E+01  4.499E+00 -1.057E-01
   1   13    3     8     4    1.8527E+02 -2.9398E+00   1.8821E+02  0.000E+00  0.000E+00  0.000E+00  1.00618E+03  3.058E+00  4.434E+01  4.519E+00 -2.169E-01
   1   13    2     8     5    1.8821E+02 -1.9822E+00   1.9019E+02  0.000E+00  0.000E+00  0.000E+00  9.99948E+02  3.073E+00  4.456E+01  4.541E+00 -1.455E-01
   1   13    1     8     6    1.9019E+02 -1.6540E+00   1.9185E+02  0.000E+00  0.000E+00  0.000E+00  9.94959E+02  3.084E+00  4.472E+01  2.734E+00 -2.016E-01
   1    8    6     9     1    0.0000E+00  0.0000E+00   0.0000E+00  0.000E+00  0.000E+00  0.000E+00  1.07875E+03  0.000E+00  4.000E+00  0.000E+00  1.000E+00
   1    8    5     9     2    0.0000E+00  0.0000E+00   0.0000E+00  0.000E+00  0.000E+00  0.000E+00  1.07825E+03  0.000E+00  4.000E+00  0.000E+00  1.000E+00





UNSATURATED ZONE PACKAGE VOLUMETRIC BUDGET FOR  TIME STEP    30 STRESS PERIOD   15
  ------------------------------------------------------------------------------



     CUMULATIVE VOLUMES      L**3       RATES FOR THIS TIME STEP      L**3/T
     ------------------                 ------------------------

           IN:                                      IN:
           ---                                      ---
        INFILTRATION =   656456562.1022          INFILTRATION =           0.8475

          OUT:                                     OUT:
          ----                                     ----
              UZF ET =   434039828.7462                UZF ET =           0.7500
        UZF RECHARGE =       73224.0000          UZF RECHARGE =       0.0000E+00

            IN - OUT =   222343509.3560              IN - OUT =       9.7500E-02

          STORAGE:                                 STORAGE:
          --------                                 --------
      STORAGE CHANGE =   222343718.6841        STORAGE CHANGE =       9.7500E-02

 PERCENT DISCREPANCY IS DIFFERENCE BETWEEN IN-OUT MINUS CHANGE IN STORAGE
 DIVIDED BY THE AVERAGE OF IN AND OUT TIMES 100

 PERCENT DISCREPANCY =          -0.00     PERCENT DISCREPANCY =           0.00






1
  VOLUMETRIC BUDGET FOR AGRICULTURAL FIELDS AT  END OF TIME STEP   30, STRESS PERIOD  15
  ------------------------------------------------------------------------------

     CUMULATIVE VOLUMES      L**3       RATES FOR THIS TIME STEP      L**3/T
     ------------------                 ------------------------

           IN:                                      IN:
           ---                                      ---
               AG WELLS  =   405755808.0000                 AG WELLS  =           0.0000
      DIVERSION SEGMENTS =   219481136.0000        DIVERSION SEGMENTS =           0.0000
       IRRIGATION PONDS  =           0.0000         IRRIGATION PONDS  =           0.0000
           GW IRRIGATION =           0.0000             GW IRRIGATION =           0.0000
           SW IRRIGATION =           0.0000             SW IRRIGATION =           0.0000
        SYSTEM LOSSES GW =           0.0000          SYSTEM LOSSES GW =           0.0000
        SYSTEM LOSSES SW =           0.0000          SYSTEM LOSSES SW =           0.0000

                TOTAL IN =   625236928.0000                  TOTAL IN =           0.0000

          OUT:                                     OUT:
          ----                                     ----
               AG WELLS  =           0.0000                 AG WELLS  =           0.0000
      DIVERSION SEGMENTS =           0.0000        DIVERSION SEGMENTS =           0.0000
       IRRIGATION PONDS  =           0.0000         IRRIGATION PONDS  =           0.0000
           GW IRRIGATION =   405755808.0000             GW IRRIGATION =           0.0000
           SW IRRIGATION =   219485376.0000             SW IRRIGATION =           0.0000
        SYSTEM LOSSES GW =           0.0000          SYSTEM LOSSES GW =           0.0000
        SYSTEM LOSSES SW =           0.0000          SYSTEM LOSSES SW =           0.0000

               TOTAL OUT =   625241216.0000                 TOTAL OUT =           0.0000

                IN - OUT =       -4288.0000                  IN - OUT =           0.0000

     PERCENT DISCREPANCY =          -0.00         PERCENT DISCREPANCY =           0.00



1
  VOLUMETRIC BUDGET FOR ENTIRE MODEL AT END OF TIME STEP   30, STRESS PERIOD  15
  ------------------------------------------------------------------------------

     CUMULATIVE VOLUMES      L**3       RATES FOR THIS TIME STEP      L**3/T
     ------------------                 ------------------------

           IN:                                      IN:
           ---                                      ---
             STORAGE     =   654038272.0000               STORAGE     =           3.9985
       CONSTANT HEAD     =           0.0000         CONSTANT HEAD     =           0.0000
     HEAD DEP BOUNDS     =    10627496.0000       HEAD DEP BOUNDS     =           0.2881
      STREAM LEAKAGE     =   430032032.0000        STREAM LEAKAGE     =          12.9085
        UZF RECHARGE     =       73223.9531          UZF RECHARGE     =           0.0000
               GW ET     =           0.0000                 GW ET     =           0.0000
     SURFACE LEAKAGE     =           0.0000       SURFACE LEAKAGE     =           0.0000
           AG WELLS      =           0.0000             AG WELLS      =           0.0000

                TOTAL IN =  1094771072.0000                  TOTAL IN =          17.1952

          OUT:                                     OUT:
          ----                                     ----
             STORAGE     =   298972256.0000               STORAGE     =           8.9061
       CONSTANT HEAD     =           0.0000         CONSTANT HEAD     =           0.0000
     HEAD DEP BOUNDS     =    10623747.0000       HEAD DEP BOUNDS     =           0.2874
      STREAM LEAKAGE     =   379422240.0000        STREAM LEAKAGE     =           8.0030
        UZF RECHARGE     =           0.0000          UZF RECHARGE     =           0.0000
               GW ET     =           0.0000                 GW ET     =           0.0000
     SURFACE LEAKAGE     =           0.0000       SURFACE LEAKAGE     =           0.0000
           AG WELLS      =   405755808.0000             AG WELLS      =           0.0000

               TOTAL OUT =  1094774016.0000                 TOTAL OUT =          17.1966

                IN - OUT =       -2944.0000                  IN - OUT =      -1.3924E-03

     PERCENT DISCREPANCY =          -0.00         PERCENT DISCREPANCY =          -0.01






         TIME SUMMARY AT END OF TIME STEP   30 IN STRESS PERIOD   15
                    SECONDS     MINUTES      HOURS       DAYS        YEARS
                    -----------------------------------------------------------
   TIME STEP LENGTH  87667.      1461.1      24.352      1.0147     2.77799E-03
 STRESS PERIOD TIME 2.63000E+06  43833.      730.56      30.440     8.33397E-02
         TOTAL TIME 3.69063E+07 6.15106E+05  10252.      427.16      1.1695    
1
1
                            STRESS PERIOD NO.   16, LENGTH =   2630000.    
                            -----------------------------------------------

                              NUMBER OF TIME STEPS =    30

                               MULTIPLIER FOR DELT =     1.000

                            INITIAL TIME STEP SIZE =   87666.66    

 REUSING NON-PARAMETER GHB CELLS FROM LAST STRESS PERIOD

      2 GHB CELLS

 REUSING STREAM SEGMENT DATA FROM LAST STRESS PERIOD



            AREAL INFILTRATION RATE
 READING ON UNIT   19 WITH FORMAT: (FREE)              

            1           2           3           4           5           6           7           8           9          10
 ........................................................................................................................
   1   1.0000E-10  2.0000E-10   0.000       0.000       0.000       0.000       0.000       0.000       0.000       0.000    
   2   2.0000E-10  1.0000E-10  2.0000E-10   0.000       0.000      8.0000E-10  8.0000E-10  5.0000E-10   0.000       0.000    
   3    0.000      5.0000E-10  1.0000E-10  1.0000E-10  8.0000E-10  8.0000E-10  5.0000E-10  5.0000E-10   0.000       0.000    
   4   8.0000E-10  5.0000E-10  1.0000E-10  1.0000E-10  1.0000E-10  1.0000E-10  1.0000E-10  1.0000E-10  2.0000E-10   0.000    
   5   8.0000E-10  5.0000E-10  1.0000E-10  1.0000E-10  1.0000E-10  1.0000E-10  1.0000E-10  1.0000E-10  1.0000E-10  1.0000E-10
   6   8.0000E-10  5.0000E-10  5.0000E-10  2.0000E-10  2.0000E-10  1.0000E-10  1.0000E-10  1.0000E-10  1.0000E-10  5.0000E-10
   7   8.0000E-10  5.0000E-10  5.0000E-10  2.0000E-10  2.0000E-10  1.0000E-10  1.0000E-10  2.0000E-10  2.0000E-10   0.000    
   8    0.000      5.0000E-10  5.0000E-10  2.0000E-10  2.0000E-10  1.0000E-10  1.0000E-10  2.0000E-10  5.0000E-10   0.000    
   9    0.000      5.0000E-10  5.0000E-10  2.0000E-10  2.0000E-10  1.0000E-10  1.0000E-10  2.0000E-10  5.0000E-10   0.000    
  10    0.000      5.0000E-10  5.0000E-10  2.0000E-10  2.0000E-10  1.0000E-10  1.0000E-10  2.0000E-10  5.0000E-10  8.0000E-10
  11    0.000      1.0000E-10  1.0000E-10  1.0000E-10  1.0000E-10  1.0000E-10  1.0000E-10  2.0000E-10  5.0000E-10   0.000    
  12   1.0000E-10  1.0000E-10  1.0000E-10  1.0000E-10  1.0000E-10  1.0000E-10  1.0000E-10  1.0000E-10  2.0000E-10   0.000    
  13   1.0000E-10  1.0000E-10  2.0000E-10  2.0000E-10  2.0000E-10  2.0000E-10  2.0000E-10  1.0000E-10  1.0000E-10   0.000    
  14    0.000      2.0000E-10  5.0000E-10  5.0000E-10  5.0000E-10  5.0000E-10  5.0000E-10  2.0000E-10  1.0000E-10   0.000    
  15    0.000       0.000      8.0000E-10  8.0000E-10  8.0000E-10  8.0000E-10   0.000       0.000       0.000       0.000    

                  ET RATE =  5.000000E-10

 USING ET EXTINCTION DEPTH FROM PREVIOUS STRESS PERIOD. CURRENT PERIOD IS:      16

 USING EXTINCTION WATER CONTENT FROM PREVIOUS STRESS PERIOD. CURRENT PERIOD IS:      16

 USING AIR ENTRY PRESSURE FROM PREVIOUS STRESS PERIOD. CURRENT PERIOD IS:      16

 USING ROOT PRESSURE HEAD FROM PREVIOUS STRESS PERIOD. CURRENT PERIOD IS:      16

 USING ROOT ACTIVITY FROM PREVIOUS STRESS PERIOD. CURRENT PERIOD IS:      16

 PROCESSING AG STRESS PERIOD DATA

 READING AG STRESS PERIOD DATA

 READING IRRIGATION SEGMENT

 READING IRRIGATION WELL

 READING SUPPLEMENTAL WELL

 NO IRRPOND OR REUSING IRRPOND DATA FROM LAST STRESS PERIOD

 END PROCESSING AG STRESS PERIOD DATA OPTIONS
 
 SOLVING FOR HEAD 
                                                   Max.-Head-Change                         Max.-Flux-Residual
  Residual-Control   Outer-Iter.   Inner-Iter.     Column Row Layer    Maximum-Head-Change  Column Row Layer    Maximum-Flux-Residual          L2-NORM 
          0                 1           2             4    7     1       0.1216205120E-01       4    7    1         0.6374674263E+00      0.1946735227E+01
          0                 2           2             4    7     1      -0.1183038859E-02       4    7    1        -0.6374693913E-01      0.1931925209E+00
          0                 3           1             4    7     1       0.8056053252E-04       4    7    1         0.4462285797E-02      0.1338780518E-01

    ------------------------------------------------
       NWT REQUIRED            3 OUTER ITERATIONS 
       AND A TOTAL OF          5 INNER ITERATIONS.
    ------------------------------------------------

 NO OUTPUT CONTROL FOR STRESS PERIOD   16   TIME STEP    1
 
 SOLVING FOR HEAD 
                                                   Max.-Head-Change                         Max.-Flux-Residual
  Residual-Control   Outer-Iter.   Inner-Iter.     Column Row Layer    Maximum-Head-Change  Column Row Layer    Maximum-Flux-Residual          L2-NORM 
          0                 1           2             4    7     1       0.1205690770E-01       4    7    1         0.6319183324E+00      0.1896895109E+01
          0                 2           2             4    7     1      -0.1172811199E-02       4    7    1        -0.6319202538E-01      0.1884053540E+00
          0                 3           1             4    7     1       0.7986406769E-04       4    7    1         0.4423441865E-02      0.1306976213E-01

    ------------------------------------------------
       NWT REQUIRED            3 OUTER ITERATIONS 
       AND A TOTAL OF          5 INNER ITERATIONS.
    ------------------------------------------------

 NO OUTPUT CONTROL FOR STRESS PERIOD   16   TIME STEP    2
 
 SOLVING FOR HEAD 
                                                   Max.-Head-Change                         Max.-Flux-Residual
  Residual-Control   Outer-Iter.   Inner-Iter.     Column Row Layer    Maximum-Head-Change  Column Row Layer    Maximum-Flux-Residual          L2-NORM 
          0                 1           2             4    7     1       0.1195345316E-01       4    7    1         0.6264594518E+00      0.1852507206E+01
          0                 2           2             4    7     1      -0.1162747831E-02       4    7    1        -0.6264613312E-01      0.1841382130E+00
          0                 3           1             4    7     1       0.7917879029E-04       4    7    1         0.4385229429E-02      0.1278787875E-01

    ------------------------------------------------
       NWT REQUIRED            3 OUTER ITERATIONS 
       AND A TOTAL OF          5 INNER ITERATIONS.
    ------------------------------------------------

 NO OUTPUT CONTROL FOR STRESS PERIOD   16   TIME STEP    3
 
 SOLVING FOR HEAD 
                                                   Max.-Head-Change                         Max.-Flux-Residual
  Residual-Control   Outer-Iter.   Inner-Iter.     Column Row Layer    Maximum-Head-Change  Column Row Layer    Maximum-Flux-Residual          L2-NORM 
          0                 1           2             4    7     1       0.1185150191E-01       4    7    1         0.6210808114E+00      0.1812858675E+01
          0                 2           2             4    7     1      -0.1152830694E-02       4    7    1        -0.6210826504E-01      0.1803223359E+00
          0                 3           1             4    7     1       0.7850347068E-04       4    7    1         0.4347578676E-02      0.1253429470E-01

    ------------------------------------------------
       NWT REQUIRED            3 OUTER ITERATIONS 
       AND A TOTAL OF          5 INNER ITERATIONS.
    ------------------------------------------------

 NO OUTPUT CONTROL FOR STRESS PERIOD   16   TIME STEP    4
 
 SOLVING FOR HEAD 
                                                   Max.-Head-Change                         Max.-Flux-Residual
  Residual-Control   Outer-Iter.   Inner-Iter.     Column Row Layer    Maximum-Head-Change  Column Row Layer    Maximum-Flux-Residual          L2-NORM 
          0                 1           2             4    7     1       0.1175101677E-01       4    7    1         0.6157801136E+00      0.1777325807E+01
          0                 2           2             4    7     1      -0.1143056172E-02       4    7    1        -0.6157819130E-01      0.1768995788E+00
          0                 3           1             4    7     1       0.7783786272E-04       4    7    1         0.4310473553E-02      0.1230718053E-01

    ------------------------------------------------
       NWT REQUIRED            3 OUTER ITERATIONS 
       AND A TOTAL OF          5 INNER ITERATIONS.
    ------------------------------------------------

 NO OUTPUT CONTROL FOR STRESS PERIOD   16   TIME STEP    5
 
 SOLVING FOR HEAD 
                                                   Max.-Head-Change                         Max.-Flux-Residual
  Residual-Control   Outer-Iter.   Inner-Iter.     Column Row Layer    Maximum-Head-Change  Column Row Layer    Maximum-Flux-Residual          L2-NORM 
          0                 1           2             4    7     1       0.1165222610E-01       4    7    1         0.6105700914E+00      0.1745353729E+01
          0                 2           2             4    7     1      -0.1133446477E-02       4    7    1        -0.6105718525E-01      0.1738154242E+00
          0                 3           1             4    7     1       0.7718347888E-04       4    7    1         0.4274003141E-02      0.1210110877E-01

    ------------------------------------------------
       NWT REQUIRED            3 OUTER ITERATIONS 
       AND A TOTAL OF          5 INNER ITERATIONS.
    ------------------------------------------------

 NO OUTPUT CONTROL FOR STRESS PERIOD   16   TIME STEP    6
 
 SOLVING FOR HEAD 
                                                   Max.-Head-Change                         Max.-Flux-Residual
  Residual-Control   Outer-Iter.   Inner-Iter.     Column Row Layer    Maximum-Head-Change  Column Row Layer    Maximum-Flux-Residual          L2-NORM 
          0                 1           2             4    7     1       0.1155467954E-01       4    7    1         0.6054259342E+00      0.1716468698E+01
          0                 2           2             4    7     1      -0.1123957802E-02       4    7    1        -0.6054276579E-01      0.1710251939E+00
          0                 3           1             4    7     1       0.7653733600E-04       4    7    1         0.4237993810E-02      0.1191495609E-01

    ------------------------------------------------
       NWT REQUIRED            3 OUTER ITERATIONS 
       AND A TOTAL OF          5 INNER ITERATIONS.
    ------------------------------------------------

 NO OUTPUT CONTROL FOR STRESS PERIOD   16   TIME STEP    7
 
 SOLVING FOR HEAD 
                                                   Max.-Head-Change                         Max.-Flux-Residual
  Residual-Control   Outer-Iter.   Inner-Iter.     Column Row Layer    Maximum-Head-Change  Column Row Layer    Maximum-Flux-Residual          L2-NORM 
          0                 1           2             4    7     1       0.1145861485E-01       4    7    1         0.6003609423E+00      0.1690240436E+01
          0                 2           2             4    7     1      -0.1114613273E-02       4    7    1        -0.6003626299E-01      0.1684875913E+00
          0                 3           1             4    7     1       0.7590100890E-04       4    7    1         0.4202538629E-02      0.1174517949E-01

    ------------------------------------------------
       NWT REQUIRED            3 OUTER ITERATIONS 
       AND A TOTAL OF          5 INNER ITERATIONS.
    ------------------------------------------------

 NO OUTPUT CONTROL FOR STRESS PERIOD   16   TIME STEP    8
 
 SOLVING FOR HEAD 
                                                   Max.-Head-Change                         Max.-Flux-Residual
  Residual-Control   Outer-Iter.   Inner-Iter.     Column Row Layer    Maximum-Head-Change  Column Row Layer    Maximum-Flux-Residual          L2-NORM 
          0                 1           2             4    7     1       0.1136398939E-01       4    7    1         0.5953727825E+00      0.1666316197E+01
          0                 2           2             4    7     1      -0.1105408744E-02       4    7    1        -0.5953744351E-01      0.1661684821E+00
          0                 3           1             4    7     1       0.7527421477E-04       4    7    1         0.4167621273E-02      0.1158908932E-01

    ------------------------------------------------
       NWT REQUIRED            3 OUTER ITERATIONS 
       AND A TOTAL OF          5 INNER ITERATIONS.
    ------------------------------------------------

 NO OUTPUT CONTROL FOR STRESS PERIOD   16   TIME STEP    9
 
 SOLVING FOR HEAD 
                                                   Max.-Head-Change                         Max.-Flux-Residual
  Residual-Control   Outer-Iter.   Inner-Iter.     Column Row Layer    Maximum-Head-Change  Column Row Layer    Maximum-Flux-Residual          L2-NORM 
          0                 1           2             4    7     1       0.1127063528E-01       4    7    1         0.5904519142E+00      0.1644395710E+01
          0                 2           2             4    7     1      -0.1096327884E-02       4    7    1        -0.5904535325E-01      0.1640403883E+00
          0                 3           1             4    7     1       0.7465584242E-04       4    7    1         0.4133174976E-02      0.1144644233E-01

    ------------------------------------------------
       NWT REQUIRED            3 OUTER ITERATIONS 
       AND A TOTAL OF          5 INNER ITERATIONS.
    ------------------------------------------------

 NO OUTPUT CONTROL FOR STRESS PERIOD   16   TIME STEP   10
 
 SOLVING FOR HEAD 
                                                   Max.-Head-Change                         Max.-Flux-Residual
  Residual-Control   Outer-Iter.   Inner-Iter.     Column Row Layer    Maximum-Head-Change  Column Row Layer    Maximum-Flux-Residual          L2-NORM 
          0                 1           2             4    7     1       0.1117865381E-01       4    7    1         0.5856042938E+00      0.1624196946E+01
          0                 2           2             4    7     1      -0.1087380546E-02       4    7    1        -0.5856058788E-01      0.1620755818E+00
          0                 3           1             4    7     1       0.7404656270E-04       4    7    1         0.4099241426E-02      0.1131388231E-01

    ------------------------------------------------
       NWT REQUIRED            3 OUTER ITERATIONS 
       AND A TOTAL OF          5 INNER ITERATIONS.
    ------------------------------------------------

 NO OUTPUT CONTROL FOR STRESS PERIOD   16   TIME STEP   11
 
 SOLVING FOR HEAD 
                                                   Max.-Head-Change                         Max.-Flux-Residual
  Residual-Control   Outer-Iter.   Inner-Iter.     Column Row Layer    Maximum-Head-Change  Column Row Layer    Maximum-Flux-Residual          L2-NORM 
          0                 1           2             4    7     1       0.1108801000E-01       4    7    1         0.5808278427E+00      0.1605501689E+01
          0                 2           2             4    7     1      -0.1078563328E-02       4    7    1        -0.5808293956E-01      0.1602528076E+00
          0                 3           1             4    7     1       0.7344614320E-04       4    7    1         0.4065806054E-02      0.1119039290E-01

    ------------------------------------------------
       NWT REQUIRED            3 OUTER ITERATIONS 
       AND A TOTAL OF          5 INNER ITERATIONS.
    ------------------------------------------------

 NO OUTPUT CONTROL FOR STRESS PERIOD   16   TIME STEP   12
 
 SOLVING FOR HEAD 
                                                   Max.-Head-Change                         Max.-Flux-Residual
  Residual-Control   Outer-Iter.   Inner-Iter.     Column Row Layer    Maximum-Head-Change  Column Row Layer    Maximum-Flux-Residual          L2-NORM 
          0                 1           2             4    7     1       0.1099853417E-01       4    7    1         0.5761134158E+00      0.1588103780E+01
          0                 2           2             4    7     1      -0.1069859723E-02       4    7    1        -0.5761149374E-01      0.1585541147E+00
          0                 3           1             4    7     1       0.7285346031E-04       4    7    1         0.4032804855E-02      0.1107520076E-01

    ------------------------------------------------
       NWT REQUIRED            3 OUTER ITERATIONS 
       AND A TOTAL OF          5 INNER ITERATIONS.
    ------------------------------------------------

 NO OUTPUT CONTROL FOR STRESS PERIOD   16   TIME STEP   13
 
 SOLVING FOR HEAD 
                                                   Max.-Head-Change                         Max.-Flux-Residual
  Residual-Control   Outer-Iter.   Inner-Iter.     Column Row Layer    Maximum-Head-Change  Column Row Layer    Maximum-Flux-Residual          L2-NORM 
          0                 1           2             4    7     1       0.1091033298E-01       4    7    1         0.5714668776E+00      0.1571834859E+01
          0                 2           2             4    7     1      -0.1061280107E-02       4    7    1        -0.5714683687E-01      0.1569624893E+00
          0                 3           1             4    7     1       0.7226922098E-04       4    7    1         0.4000278907E-02      0.1096725074E-01

    ------------------------------------------------
       NWT REQUIRED            3 OUTER ITERATIONS 
       AND A TOTAL OF          5 INNER ITERATIONS.
    ------------------------------------------------

 NO OUTPUT CONTROL FOR STRESS PERIOD   16   TIME STEP   14
 
 SOLVING FOR HEAD 
                                                   Max.-Head-Change                         Max.-Flux-Residual
  Residual-Control   Outer-Iter.   Inner-Iter.     Column Row Layer    Maximum-Head-Change  Column Row Layer    Maximum-Flux-Residual          L2-NORM 
          0                 1           2             4    7     1       0.1082324225E-01       4    7    1         0.5668790958E+00      0.1556554607E+01
          0                 2           2             4    7     1      -0.1052808510E-02       4    7    1        -0.5668805570E-01      0.1554646693E+00
          0                 3           1             4    7     1       0.7169233710E-04       4    7    1         0.3968164229E-02      0.1086516375E-01

    ------------------------------------------------
       NWT REQUIRED            3 OUTER ITERATIONS 
       AND A TOTAL OF          5 INNER ITERATIONS.
    ------------------------------------------------

 NO OUTPUT CONTROL FOR STRESS PERIOD   16   TIME STEP   15
 
 SOLVING FOR HEAD 
                                                   Max.-Head-Change                         Max.-Flux-Residual
  Residual-Control   Outer-Iter.   Inner-Iter.     Column Row Layer    Maximum-Head-Change  Column Row Layer    Maximum-Flux-Residual          L2-NORM 
          0                 1           2             4    7     1       0.1073750520E-01       4    7    1         0.5623635537E+00      0.1542137027E+01
          0                 2           2             4    7     1      -0.1044468589E-02       4    7    1        -0.5623649859E-01      0.1540490006E+00
          0                 3           1             4    7     1       0.7112441994E-04       4    7    1         0.3936555251E-02      0.1076871985E-01

    ------------------------------------------------
       NWT REQUIRED            3 OUTER ITERATIONS 
       AND A TOTAL OF          5 INNER ITERATIONS.
    ------------------------------------------------

 NO OUTPUT CONTROL FOR STRESS PERIOD   16   TIME STEP   16
 
 SOLVING FOR HEAD 
                                                   Max.-Head-Change                         Max.-Flux-Residual
  Residual-Control   Outer-Iter.   Inner-Iter.     Column Row Layer    Maximum-Head-Change  Column Row Layer    Maximum-Flux-Residual          L2-NORM 
          0                 1           2             4    7     1       0.1065281681E-01       4    7    1         0.5579035331E+00      0.1528474285E+01
          0                 2           2             4    7     1      -0.1036230676E-02       4    7    1        -0.5579049371E-01      0.1527053239E+00
          0                 3           1             4    7     1       0.7056344902E-04       4    7    1         0.3905334915E-02      0.1067620018E-01

    ------------------------------------------------
       NWT REQUIRED            3 OUTER ITERATIONS 
       AND A TOTAL OF          5 INNER ITERATIONS.
    ------------------------------------------------

 NO OUTPUT CONTROL FOR STRESS PERIOD   16   TIME STEP   17
 
 SOLVING FOR HEAD 
                                                   Max.-Head-Change                         Max.-Flux-Residual
  Residual-Control   Outer-Iter.   Inner-Iter.     Column Row Layer    Maximum-Head-Change  Column Row Layer    Maximum-Flux-Residual          L2-NORM 
          0                 1           2             4    7     1       0.1056915216E-01       4    7    1         0.5534978837E+00      0.1515469713E+01
          0                 2           2             4    7     1      -0.1028092347E-02       4    7    1        -0.5534992606E-01      0.1514238237E+00
          0                 3           1             4    7     1       0.7000925927E-04       4    7    1         0.3874495190E-02      0.1058821537E-01

    ------------------------------------------------
       NWT REQUIRED            3 OUTER ITERATIONS 
       AND A TOTAL OF          5 INNER ITERATIONS.
    ------------------------------------------------

 NO OUTPUT CONTROL FOR STRESS PERIOD   16   TIME STEP   18
 
 SOLVING FOR HEAD 
                                                   Max.-Head-Change                         Max.-Flux-Residual
  Residual-Control   Outer-Iter.   Inner-Iter.     Column Row Layer    Maximum-Head-Change  Column Row Layer    Maximum-Flux-Residual          L2-NORM 
          0                 1           2             4    7     1       0.1048676094E-01       4    7    1         0.5491599783E+00      0.1503058672E+01
          0                 2           2             4    7     1      -0.1020077888E-02       4    7    1        -0.5491613282E-01      0.1501995882E+00
          0                 3           1             4    7     1       0.6946350502E-04       4    7    1         0.3844129687E-02      0.1050404899E-01

    ------------------------------------------------
       NWT REQUIRED            3 OUTER ITERATIONS 
       AND A TOTAL OF          5 INNER ITERATIONS.
    ------------------------------------------------

 NO OUTPUT CONTROL FOR STRESS PERIOD   16   TIME STEP   19
 
 SOLVING FOR HEAD 
                                                   Max.-Head-Change                         Max.-Flux-Residual
  Residual-Control   Outer-Iter.   Inner-Iter.     Column Row Layer    Maximum-Head-Change  Column Row Layer    Maximum-Flux-Residual          L2-NORM 
          0                 1           2             4    7     1       0.1040534057E-01       4    7    1         0.5448734333E+00      0.1491160534E+01
          0                 2           2             4    7     1      -0.1012157868E-02       4    7    1        -0.5448747574E-01      0.1490242817E+00
          0                 3           1             4    7     1       0.6892418131E-04       4    7    1         0.3814123699E-02      0.1042320480E-01

    ------------------------------------------------
       NWT REQUIRED            3 OUTER ITERATIONS 
       AND A TOTAL OF          5 INNER ITERATIONS.
    ------------------------------------------------

 NO OUTPUT CONTROL FOR STRESS PERIOD   16   TIME STEP   20
 
 SOLVING FOR HEAD 
                                                   Max.-Head-Change                         Max.-Flux-Residual
  Residual-Control   Outer-Iter.   Inner-Iter.     Column Row Layer    Maximum-Head-Change  Column Row Layer    Maximum-Flux-Residual          L2-NORM 
          0                 1           2             4    7     1       0.1032500477E-01       4    7    1         0.5406445578E+00      0.1479726314E+01
          0                 2           2             4    7     1      -0.1004343348E-02       4    7    1        -0.5406458563E-01      0.1478932738E+00
          0                 3           1             4    7     1       0.6839204145E-04       4    7    1         0.3784521389E-02      0.1034517515E-01

    ------------------------------------------------
       NWT REQUIRED            3 OUTER ITERATIONS 
       AND A TOTAL OF          5 INNER ITERATIONS.
    ------------------------------------------------

 NO OUTPUT CONTROL FOR STRESS PERIOD   16   TIME STEP   21
 
 SOLVING FOR HEAD 
                                                   Max.-Head-Change                         Max.-Flux-Residual
  Residual-Control   Outer-Iter.   Inner-Iter.     Column Row Layer    Maximum-Head-Change  Column Row Layer    Maximum-Flux-Residual          L2-NORM 
          0                 1           2             4    7     1       0.1024572857E-01       4    7    1         0.5364719157E+00      0.1468702397E+01
          0                 2           2             4    7     1      -0.9966318980E-03       4    7    1        -0.5364731896E-01      0.1468015429E+00
          0                 3           1             4    7     1       0.6786692050E-04       4    7    1         0.3755312736E-02      0.1026974154E-01

    ------------------------------------------------
       NWT REQUIRED            3 OUTER ITERATIONS 
       AND A TOTAL OF          5 INNER ITERATIONS.
    ------------------------------------------------

 NO OUTPUT CONTROL FOR STRESS PERIOD   16   TIME STEP   22
 
 SOLVING FOR HEAD 
                                                   Max.-Head-Change                         Max.-Flux-Residual
  Residual-Control   Outer-Iter.   Inner-Iter.     Column Row Layer    Maximum-Head-Change  Column Row Layer    Maximum-Flux-Residual          L2-NORM 
          0                 1           2             4    7     1       0.1016748874E-01       4    7    1         0.5323542115E+00      0.1458052330E+01
          0                 2           2             4    7     1      -0.9890212610E-03       4    7    1        -0.5323554616E-01      0.1457458247E+00
          0                 3           1             4    7     1       0.6734866485E-04       4    7    1         0.3726488659E-02      0.1019669561E-01

    ------------------------------------------------
       NWT REQUIRED            3 OUTER ITERATIONS 
       AND A TOTAL OF          5 INNER ITERATIONS.
    ------------------------------------------------

 NO OUTPUT CONTROL FOR STRESS PERIOD   16   TIME STEP   23
 
 SOLVING FOR HEAD 
                                                   Max.-Head-Change                         Max.-Flux-Residual
  Residual-Control   Outer-Iter.   Inner-Iter.     Column Row Layer    Maximum-Head-Change  Column Row Layer    Maximum-Flux-Residual          L2-NORM 
          0                 1           2             4    7     1       0.1009012473E-01       4    7    1         0.5282829087E+00      0.1447724208E+01
          0                 2           2             4    7     1      -0.9814958176E-03       4    7    1        -0.5282841351E-01      0.1447208815E+00
          0                 3           1             4    7     1       0.6683621053E-04       4    7    1         0.3697989378E-02      0.1012562388E-01

    ------------------------------------------------
       NWT REQUIRED            3 OUTER ITERATIONS 
       AND A TOTAL OF          5 INNER ITERATIONS.
    ------------------------------------------------

 NO OUTPUT CONTROL FOR STRESS PERIOD   16   TIME STEP   24
 
 SOLVING FOR HEAD 
                                                   Max.-Head-Change                         Max.-Flux-Residual
  Residual-Control   Outer-Iter.   Inner-Iter.     Column Row Layer    Maximum-Head-Change  Column Row Layer    Maximum-Flux-Residual          L2-NORM 
          0                 1           2             4    7     1       0.1001375773E-01       4    7    1         0.5242643490E+00      0.1437699890E+01
          0                 2           2             4    7     1      -0.9740673562E-03       4    7    1        -0.5242655523E-01      0.1437255986E+00
          0                 3           1             4    7     1       0.6633036011E-04       4    7    1         0.3669859311E-02      0.1005668122E-01

    ------------------------------------------------
       NWT REQUIRED            3 OUTER ITERATIONS 
       AND A TOTAL OF          5 INNER ITERATIONS.
    ------------------------------------------------

 NO OUTPUT CONTROL FOR STRESS PERIOD   16   TIME STEP   25
 
 SOLVING FOR HEAD 
                                                   Max.-Head-Change                         Max.-Flux-Residual
  Residual-Control   Outer-Iter.   Inner-Iter.     Column Row Layer    Maximum-Head-Change  Column Row Layer    Maximum-Flux-Residual          L2-NORM 
          0                 1           2             4    7     1       0.9938497252E-02       4    7    1         0.5203048160E+00      0.1427950857E+01
          0                 2           2             4    7     1      -0.9667465309E-03       4    7    1        -0.5203059972E-01      0.1427563338E+00
          0                 3           1             4    7     1       0.6583183934E-04       4    7    1         0.3642142423E-02      0.9989377997E-02

    ------------------------------------------------
       NWT REQUIRED            3 OUTER ITERATIONS 
       AND A TOTAL OF          5 INNER ITERATIONS.
    ------------------------------------------------

 NO OUTPUT CONTROL FOR STRESS PERIOD   16   TIME STEP   26
 
 SOLVING FOR HEAD 
                                                   Max.-Head-Change                         Max.-Flux-Residual
  Residual-Control   Outer-Iter.   Inner-Iter.     Column Row Layer    Maximum-Head-Change  Column Row Layer    Maximum-Flux-Residual          L2-NORM 
          0                 1           2             4    7     1       0.9864047290E-02       4    7    1         0.5163879871E+00      0.1418450882E+01
          0                 2           2             4    7     1      -0.9595045474E-03       4    7    1        -0.5163891465E-01      0.1418115144E+00
          0                 3           1             4    7     1       0.6533868751E-04       4    7    1         0.3614724482E-02      0.9923593369E-02

    ------------------------------------------------
       NWT REQUIRED            3 OUTER ITERATIONS 
       AND A TOTAL OF          5 INNER ITERATIONS.
    ------------------------------------------------

 NO OUTPUT CONTROL FOR STRESS PERIOD   16   TIME STEP   27
 
 SOLVING FOR HEAD 
                                                   Max.-Head-Change                         Max.-Flux-Residual
  Residual-Control   Outer-Iter.   Inner-Iter.     Column Row Layer    Maximum-Head-Change  Column Row Layer    Maximum-Flux-Residual          L2-NORM 
          0                 1           2             4    7     1       0.9790528410E-02       4    7    1         0.5125205159E+00      0.1409176740E+01
          0                 2           2             4    7     1      -0.9523531337E-03       4    7    1        -0.5125216540E-01      0.1408885751E+00
          0                 3           1             4    7     1       0.6485170349E-04       4    7    1         0.3587652055E-02      0.9859471323E-02

    ------------------------------------------------
       NWT REQUIRED            3 OUTER ITERATIONS 
       AND A TOTAL OF          5 INNER ITERATIONS.
    ------------------------------------------------

 NO OUTPUT CONTROL FOR STRESS PERIOD   16   TIME STEP   28
 
 SOLVING FOR HEAD 
                                                   Max.-Head-Change                         Max.-Flux-Residual
  Residual-Control   Outer-Iter.   Inner-Iter.     Column Row Layer    Maximum-Head-Change  Column Row Layer    Maximum-Flux-Residual          L2-NORM 
          0                 1           2             4    7     1       0.9717787406E-02       4    7    1         0.5086939857E+00      0.1400111722E+01
          0                 2           2             4    7     1      -0.9452773868E-03       4    7    1        -0.5086951030E-01      0.1399859388E+00
          0                 3           1             4    7     1       0.6436987138E-04       4    7    1         0.3560866210E-02      0.9796685607E-02

    ------------------------------------------------
       NWT REQUIRED            3 OUTER ITERATIONS 
       AND A TOTAL OF          5 INNER ITERATIONS.
    ------------------------------------------------

 NO OUTPUT CONTROL FOR STRESS PERIOD   16   TIME STEP   29
 
 SOLVING FOR HEAD 
                                                   Max.-Head-Change                         Max.-Flux-Residual
  Residual-Control   Outer-Iter.   Inner-Iter.     Column Row Layer    Maximum-Head-Change  Column Row Layer    Maximum-Flux-Residual          L2-NORM 
          0                 1           2             4    7     1       0.9646054237E-02       4    7    1         0.5049224554E+00      0.1379811943E+01
          0                 2           2             4    7     1      -0.9382996753E-03       4    7    1        -0.5049235525E-01      0.1379787704E+00
          0                 3           1             4    7     1       0.6389471512E-04       4    7    1         0.3534465352E-02      0.9658244016E-02

    ------------------------------------------------
       NWT REQUIRED            3 OUTER ITERATIONS 
       AND A TOTAL OF          5 INNER ITERATIONS.
    ------------------------------------------------

 NO OUTPUT CONTROL FOR STRESS PERIOD   16   TIME STEP   30



 STREAM LISTING     PERIOD     16   STEP       30

 LAYER ROW COL. STREAM  RCH.  FLOW INTO     FLOW TO   FLOW OUT OF   OVRLND.     DIRECT     STREAM       STREAM     STREAM     STREAM   STREAMBED  STREAMBED
                SEG.NO.  NO.  STRM. RCH.    AQUIFER    STRM. RCH.    RUNOFF     PRECIP       ET          HEAD       DEPTH      WIDTH   CONDCTNC.   GRADIENT

   1    1    1     1     1    3.3171E+01  2.7949E-01   3.2891E+01  0.000E+00  0.000E+00  0.000E+00  1.09432E+03  1.277E+00  1.452E+01  6.535E-02  1.426E+00
   1    2    2     1     2    3.2891E+01  4.3266E-01   3.2458E+01  0.000E+00  0.000E+00  0.000E+00  1.08933E+03  1.274E+00  1.446E+01  1.012E-01  1.425E+00
   1    3    3     1     3    3.2458E+01  3.6882E-01   3.2090E+01  0.000E+00  0.000E+00  0.000E+00  1.08369E+03  1.270E+00  1.439E+01  8.637E-02  1.423E+00
   1    3    4     1     4    3.2090E+01  3.3948E-01   3.1750E+01  0.000E+00  0.000E+00  0.000E+00  1.07868E+03  1.267E+00  1.433E+01  7.955E-02  1.422E+00
   1    4    5     2     1    2.9750E+01  3.3819E-01   2.9412E+01  0.000E+00  0.000E+00  0.000E+00  1.07327E+03  1.336E+00  1.200E+01  7.800E-02  1.445E+00
   1    5    6     2     2    2.9412E+01  2.5966E-01   2.9152E+01  0.000E+00  0.000E+00  0.000E+00  1.06784E+03  1.328E+00  1.200E+01  6.000E-02  1.443E+00
   1    6    6     2     3    2.9152E+01  2.5924E-01   2.8893E+01  0.000E+00  0.000E+00  0.000E+00  1.06311E+03  1.321E+00  1.200E+01  6.000E-02  1.440E+00
   1    7    6     2     4    2.8893E+01  2.5881E-01   2.8634E+01  0.000E+00  0.000E+00  0.000E+00  1.05839E+03  1.314E+00  1.200E+01  6.000E-02  1.438E+00
   1    8    6     2     5    2.8634E+01  2.5839E-01   2.8376E+01  0.000E+00  0.000E+00  0.000E+00  1.05367E+03  1.306E+00  1.200E+01  6.000E-02  1.435E+00
   1    3    5     3     1    2.0000E+00  2.8252E-01   1.7175E+00  0.000E+00  0.000E+00  0.000E+00  1.07555E+03  1.909E+00  9.636E+00  7.227E-02  1.955E+00
   1    3    6     3     2    1.7175E+00  2.4905E-01   1.4684E+00  0.000E+00  0.000E+00  0.000E+00  1.07264E+03  1.727E+00  8.909E+00  6.682E-02  1.864E+00
   1    3    7     3     3    1.4684E+00  1.9718E-01   1.2712E+00  0.000E+00  0.000E+00  0.000E+00  1.06987E+03  1.555E+00  8.218E+00  5.547E-02  1.777E+00
   1    4    8     3     4    1.2712E+00  2.2567E-01   1.0456E+00  0.000E+00  0.000E+00  0.000E+00  1.06682E+03  1.364E+00  7.455E+00  6.709E-02  1.682E+00
   1    5    8     3     5    1.0456E+00  1.5790E-01   8.8768E-01  0.000E+00  0.000E+00  0.000E+00  1.06362E+03  1.164E+00  6.655E+00  4.991E-02  1.582E+00
   1    6    8     3     6    8.8768E-01  5.5980E-02   8.3170E-01  0.000E+00  0.000E+00  0.000E+00  1.06158E+03  1.036E+00  6.145E+00  1.844E-02  1.518E+00
   1    5   10     4     1    1.0000E+01  9.0919E-02   9.9091E+00  0.000E+00  0.000E+00  0.000E+00  1.07836E+03  6.368E-01  1.000E+01  2.500E-02  1.212E+00
   1    5    9     4     2    9.9091E+00  1.8158E-01   9.7275E+00  0.000E+00  0.000E+00  0.000E+00  1.07154E+03  6.315E-01  1.000E+01  5.000E-02  1.211E+00
   1    6    8     4     3    9.7275E+00  1.2689E-01   9.6006E+00  0.000E+00  0.000E+00  0.000E+00  1.06381E+03  6.256E-01  1.000E+01  3.500E-02  1.209E+00
   1    6    8     5     1    1.0432E+01  2.2686E-01   1.0205E+01  0.000E+00  0.000E+00  0.000E+00  1.05868E+03  6.790E-01  1.542E+01  6.166E-02  1.226E+00
   1    7    7     5     2    1.0205E+01  2.7894E-01   9.9265E+00  0.000E+00  0.000E+00  0.000E+00  1.05417E+03  6.732E-01  1.519E+01  7.594E-02  1.224E+00
   1    8    7     5     3    9.9265E+00  1.9221E-01   9.7343E+00  0.000E+00  0.000E+00  0.000E+00  1.04992E+03  6.676E-01  1.497E+01  5.241E-02  1.223E+00
   1    8    6     5     4    9.7343E+00  1.3577E-01   9.5985E+00  0.000E+00  0.000E+00  0.000E+00  1.04691E+03  6.637E-01  1.482E+01  3.706E-02  1.221E+00
   1    9    6     6     1    3.7974E+01  2.7395E-01   3.7700E+01  0.000E+00  0.000E+00  0.000E+00  1.04429E+03  1.566E+00  1.200E+01  6.000E-02  1.522E+00
   1   10    7     6     2    3.7700E+01  2.7354E-01   3.7427E+01  0.000E+00  0.000E+00  0.000E+00  1.03974E+03  1.559E+00  1.200E+01  6.000E-02  1.520E+00
   1   11    7     6     3    3.7427E+01  2.7313E-01   3.7154E+01  0.000E+00  0.000E+00  0.000E+00  1.03519E+03  1.552E+00  1.200E+01  6.000E-02  1.517E+00
   1   12    7     6     4    3.7154E+01  2.7272E-01   3.6881E+01  0.000E+00  0.000E+00  0.000E+00  1.03064E+03  1.545E+00  1.200E+01  6.000E-02  1.515E+00
   1   13    7     6     5    3.6881E+01  1.6653E-02   3.6864E+01  0.000E+00  0.000E+00  0.000E+00  1.02745E+03  1.542E+00  1.200E+01  2.400E-02  2.313E-01
   1   14    9     7     1    1.5000E+02  1.3710E+00   1.4863E+02  0.000E+00  0.000E+00  0.000E+00  1.03987E+03  2.288E+00  5.529E+01  5.593E-01  8.171E-01
   1   13    8     7     2    1.4863E+02  1.9366E+00   1.4669E+02  0.000E+00  0.000E+00  0.000E+00  1.03478E+03  2.279E+00  5.525E+01  6.148E-01  1.050E+00
   1   13    7     7     3    1.4669E+02  1.6371E+00   1.4506E+02  0.000E+00  0.000E+00  0.000E+00  1.02969E+03  2.269E+00  5.521E+01  5.584E-01  9.772E-01
   1   13    6     8     1    1.8192E+02  1.1369E+00   1.8078E+02  0.000E+00  0.000E+00  0.000E+00  1.02490E+03  3.025E+00  4.386E+01  4.469E-01  8.479E-01
   1   13    5     8     2    1.8078E+02  3.5702E-01   1.8043E+02  0.000E+00  0.000E+00  0.000E+00  1.01864E+03  3.020E+00  4.379E+01  4.462E-01  2.667E-01
   1   13    4     8     3    1.8043E+02 -1.9103E+00   1.8234E+02  0.000E+00  0.000E+00  0.000E+00  1.01240E+03  3.025E+00  4.386E+01  4.469E+00 -1.425E-01
   1   13    3     8     4    1.8234E+02 -3.4046E+00   1.8574E+02  0.000E+00  0.000E+00  0.000E+00  1.00617E+03  3.041E+00  4.410E+01  4.494E+00 -2.525E-01
   1   13    2     8     5    1.8574E+02 -2.5116E+00   1.8825E+02  0.000E+00  0.000E+00  0.000E+00  9.99935E+02  3.060E+00  4.436E+01  4.521E+00 -1.852E-01
   1   13    1     8     6    1.8825E+02 -1.9235E+00   1.9018E+02  0.000E+00  0.000E+00  0.000E+00  9.94948E+02  3.073E+00  4.456E+01  2.725E+00 -2.353E-01
   1    8    6     9     1    0.0000E+00  0.0000E+00   0.0000E+00  0.000E+00  0.000E+00  0.000E+00  1.07875E+03  0.000E+00  4.000E+00  0.000E+00  1.000E+00
   1    8    5     9     2    0.0000E+00  0.0000E+00   0.0000E+00  0.000E+00  0.000E+00  0.000E+00  1.07825E+03  0.000E+00  4.000E+00  0.000E+00  1.000E+00





UNSATURATED ZONE PACKAGE VOLUMETRIC BUDGET FOR  TIME STEP    30 STRESS PERIOD   16
  ------------------------------------------------------------------------------



     CUMULATIVE VOLUMES      L**3       RATES FOR THIS TIME STEP      L**3/T
     ------------------                 ------------------------

           IN:                                      IN:
           ---                                      ---
        INFILTRATION =   658685486.9749          INFILTRATION =           0.8475

          OUT:                                     OUT:
          ----                                     ----
              UZF ET =   436012328.6530                UZF ET =           0.7500
        UZF RECHARGE =       73224.0000          UZF RECHARGE =       0.0000E+00

            IN - OUT =   222599934.3219              IN - OUT =       9.7500E-02

          STORAGE:                                 STORAGE:
          --------                                 --------
      STORAGE CHANGE =   222600143.6702        STORAGE CHANGE =       9.7500E-02

 PERCENT DISCREPANCY IS DIFFERENCE BETWEEN IN-OUT MINUS CHANGE IN STORAGE
 DIVIDED BY THE AVERAGE OF IN AND OUT TIMES 100

 PERCENT DISCREPANCY =          -0.00     PERCENT DISCREPANCY =           0.00






1
  VOLUMETRIC BUDGET FOR AGRICULTURAL FIELDS AT  END OF TIME STEP   30, STRESS PERIOD  16
  ------------------------------------------------------------------------------

     CUMULATIVE VOLUMES      L**3       RATES FOR THIS TIME STEP      L**3/T
     ------------------                 ------------------------

           IN:                                      IN:
           ---                                      ---
               AG WELLS  =   405755808.0000                 AG WELLS  =           0.0000
      DIVERSION SEGMENTS =   219481136.0000        DIVERSION SEGMENTS =           0.0000
       IRRIGATION PONDS  =           0.0000         IRRIGATION PONDS  =           0.0000
           GW IRRIGATION =           0.0000             GW IRRIGATION =           0.0000
           SW IRRIGATION =           0.0000             SW IRRIGATION =           0.0000
        SYSTEM LOSSES GW =           0.0000          SYSTEM LOSSES GW =           0.0000
        SYSTEM LOSSES SW =           0.0000          SYSTEM LOSSES SW =           0.0000

                TOTAL IN =   625236928.0000                  TOTAL IN =           0.0000

          OUT:                                     OUT:
          ----                                     ----
               AG WELLS  =           0.0000                 AG WELLS  =           0.0000
      DIVERSION SEGMENTS =           0.0000        DIVERSION SEGMENTS =           0.0000
       IRRIGATION PONDS  =           0.0000         IRRIGATION PONDS  =           0.0000
           GW IRRIGATION =   405755808.0000             GW IRRIGATION =           0.0000
           SW IRRIGATION =   219485376.0000             SW IRRIGATION =           0.0000
        SYSTEM LOSSES GW =           0.0000          SYSTEM LOSSES GW =           0.0000
        SYSTEM LOSSES SW =           0.0000          SYSTEM LOSSES SW =           0.0000

               TOTAL OUT =   625241216.0000                 TOTAL OUT =           0.0000

                IN - OUT =       -4288.0000                  IN - OUT =           0.0000

     PERCENT DISCREPANCY =          -0.00         PERCENT DISCREPANCY =           0.00



1
  VOLUMETRIC BUDGET FOR ENTIRE MODEL AT END OF TIME STEP   30, STRESS PERIOD  16
  ------------------------------------------------------------------------------

     CUMULATIVE VOLUMES      L**3       RATES FOR THIS TIME STEP      L**3/T
     ------------------                 ------------------------

           IN:                                      IN:
           ---                                      ---
             STORAGE     =   662863552.0000               STORAGE     =           2.9929
       CONSTANT HEAD     =           0.0000         CONSTANT HEAD     =           0.0000
     HEAD DEP BOUNDS     =    11385291.0000       HEAD DEP BOUNDS     =           0.2882
      STREAM LEAKAGE     =   463944128.0000        STREAM LEAKAGE     =          12.7448
        UZF RECHARGE     =       73223.9531          UZF RECHARGE     =           0.0000
               GW ET     =           0.0000                 GW ET     =           0.0000
     SURFACE LEAKAGE     =           0.0000       SURFACE LEAKAGE     =           0.0000
           AG WELLS      =           0.0000             AG WELLS      =           0.0000

                TOTAL IN =  1138266112.0000                  TOTAL IN =          16.0259

          OUT:                                     OUT:
          ----                                     ----
             STORAGE     =   317896256.0000               STORAGE     =           5.9858
       CONSTANT HEAD     =           0.0000         CONSTANT HEAD     =           0.0000
     HEAD DEP BOUNDS     =    11385376.0000       HEAD DEP BOUNDS     =           0.2909
      STREAM LEAKAGE     =   403234624.0000        STREAM LEAKAGE     =           9.7500
        UZF RECHARGE     =           0.0000          UZF RECHARGE     =           0.0000
               GW ET     =           0.0000                 GW ET     =           0.0000
     SURFACE LEAKAGE     =           0.0000       SURFACE LEAKAGE     =           0.0000
           AG WELLS      =   405755808.0000             AG WELLS      =           0.0000

               TOTAL OUT =  1138272000.0000                 TOTAL OUT =          16.0267

                IN - OUT =       -5888.0000                  IN - OUT =      -8.5449E-04

     PERCENT DISCREPANCY =          -0.00         PERCENT DISCREPANCY =          -0.01






         TIME SUMMARY AT END OF TIME STEP   30 IN STRESS PERIOD   16
                    SECONDS     MINUTES      HOURS       DAYS        YEARS
                    -----------------------------------------------------------
   TIME STEP LENGTH  87667.      1461.1      24.352      1.0147     2.77799E-03
 STRESS PERIOD TIME 2.63000E+06  43833.      730.56      30.440     8.33397E-02
         TOTAL TIME 3.95364E+07 6.58940E+05  10982.      457.60      1.2528    
1
1
                            STRESS PERIOD NO.   17, LENGTH =   2630000.    
                            -----------------------------------------------

                              NUMBER OF TIME STEPS =    30

                               MULTIPLIER FOR DELT =     1.000

                            INITIAL TIME STEP SIZE =   87666.66    

 REUSING NON-PARAMETER GHB CELLS FROM LAST STRESS PERIOD

      2 GHB CELLS

 REUSING STREAM SEGMENT DATA FROM LAST STRESS PERIOD



            AREAL INFILTRATION RATE
 READING ON UNIT   19 WITH FORMAT: (FREE)              

            1           2           3           4           5           6           7           8           9          10
 ........................................................................................................................
   1   1.0000E-10  2.0000E-10   0.000       0.000       0.000       0.000       0.000       0.000       0.000       0.000    
   2   2.0000E-10  1.0000E-10  2.0000E-10   0.000       0.000      8.0000E-10  8.0000E-10  5.0000E-10   0.000       0.000    
   3    0.000      5.0000E-10  1.0000E-10  1.0000E-10  8.0000E-10  8.0000E-10  5.0000E-10  5.0000E-10   0.000       0.000    
   4   8.0000E-10  5.0000E-10  1.0000E-10  1.0000E-10  1.0000E-10  1.0000E-10  1.0000E-10  1.0000E-10  2.0000E-10   0.000    
   5   8.0000E-10  5.0000E-10  1.0000E-10  1.0000E-10  1.0000E-10  1.0000E-10  1.0000E-10  1.0000E-10  1.0000E-10  1.0000E-10
   6   8.0000E-10  5.0000E-10  5.0000E-10  2.0000E-10  2.0000E-10  1.0000E-10  1.0000E-10  1.0000E-10  1.0000E-10  5.0000E-10
   7   8.0000E-10  5.0000E-10  5.0000E-10  2.0000E-10  2.0000E-10  1.0000E-10  1.0000E-10  2.0000E-10  2.0000E-10   0.000    
   8    0.000      5.0000E-10  5.0000E-10  2.0000E-10  2.0000E-10  1.0000E-10  1.0000E-10  2.0000E-10  5.0000E-10   0.000    
   9    0.000      5.0000E-10  5.0000E-10  2.0000E-10  2.0000E-10  1.0000E-10  1.0000E-10  2.0000E-10  5.0000E-10   0.000    
  10    0.000      5.0000E-10  5.0000E-10  2.0000E-10  2.0000E-10  1.0000E-10  1.0000E-10  2.0000E-10  5.0000E-10  8.0000E-10
  11    0.000      1.0000E-10  1.0000E-10  1.0000E-10  1.0000E-10  1.0000E-10  1.0000E-10  2.0000E-10  5.0000E-10   0.000    
  12   1.0000E-10  1.0000E-10  1.0000E-10  1.0000E-10  1.0000E-10  1.0000E-10  1.0000E-10  1.0000E-10  2.0000E-10   0.000    
  13   1.0000E-10  1.0000E-10  2.0000E-10  2.0000E-10  2.0000E-10  2.0000E-10  2.0000E-10  1.0000E-10  1.0000E-10   0.000    
  14    0.000      2.0000E-10  5.0000E-10  5.0000E-10  5.0000E-10  5.0000E-10  5.0000E-10  2.0000E-10  1.0000E-10   0.000    
  15    0.000       0.000      8.0000E-10  8.0000E-10  8.0000E-10  8.0000E-10   0.000       0.000       0.000       0.000    

                  ET RATE =  2.500000E-08

 USING ET EXTINCTION DEPTH FROM PREVIOUS STRESS PERIOD. CURRENT PERIOD IS:      17

 USING EXTINCTION WATER CONTENT FROM PREVIOUS STRESS PERIOD. CURRENT PERIOD IS:      17

 USING AIR ENTRY PRESSURE FROM PREVIOUS STRESS PERIOD. CURRENT PERIOD IS:      17

 USING ROOT PRESSURE HEAD FROM PREVIOUS STRESS PERIOD. CURRENT PERIOD IS:      17

 USING ROOT ACTIVITY FROM PREVIOUS STRESS PERIOD. CURRENT PERIOD IS:      17

 PROCESSING AG STRESS PERIOD DATA

 READING AG STRESS PERIOD DATA

 READING IRRIGATION SEGMENT

 READING IRRIGATION WELL

 READING SUPPLEMENTAL WELL

 NO IRRPOND OR REUSING IRRPOND DATA FROM LAST STRESS PERIOD

 END PROCESSING AG STRESS PERIOD DATA OPTIONS
 
 SOLVING FOR HEAD 
                                                   Max.-Head-Change                         Max.-Flux-Residual
  Residual-Control   Outer-Iter.   Inner-Iter.     Column Row Layer    Maximum-Head-Change  Column Row Layer    Maximum-Flux-Residual          L2-NORM 
          0                 1           2             4    7     1       0.9575133674E-02       4    7    1         0.5011958452E+00      0.1410777409E+01
          0                 2           2             4    7     1      -0.1247655046E-01       4    7    1        -0.6701197567E+00      0.1628172994E+01
          0                 3           2             4    7     1       0.1208077410E-01       4    7    1         0.6669083072E+00      0.1632277173E+01
          0                 4           2             4    7     1      -0.4807091025E-03       4    7    1        -0.2727681529E-01      0.6676326055E-01
          0                 5           1             4    7     1       0.5928710814E-05       4    7    1         0.3457605676E-03      0.8466787078E-03

    ------------------------------------------------
       NWT REQUIRED            5 OUTER ITERATIONS 
       AND A TOTAL OF          9 INNER ITERATIONS.
    ------------------------------------------------

 NO OUTPUT CONTROL FOR STRESS PERIOD   17   TIME STEP    1
 
 SOLVING FOR HEAD 
                                                   Max.-Head-Change                         Max.-Flux-Residual
  Residual-Control   Outer-Iter.   Inner-Iter.     Column Row Layer    Maximum-Head-Change  Column Row Layer    Maximum-Flux-Residual          L2-NORM 
          0                 1           2             4    7     1       0.9505039630E-02       4    7    1         0.4975127576E+00      0.1364831124E+01
          0                 2           2             4    7     1      -0.9245829483E-03       4    7    1        -0.4975139269E-01      0.1364153559E+00
          0                 3           1             4    7     1       0.6296085718E-04       4    7    1         0.3482609007E-02      0.9542961718E-02

    ------------------------------------------------
       NWT REQUIRED            3 OUTER ITERATIONS 
       AND A TOTAL OF          5 INNER ITERATIONS.
    ------------------------------------------------

 NO OUTPUT CONTROL FOR STRESS PERIOD   17   TIME STEP    2
 
 SOLVING FOR HEAD 
                                                   Max.-Head-Change                         Max.-Flux-Residual
  Residual-Control   Outer-Iter.   Inner-Iter.     Column Row Layer    Maximum-Head-Change  Column Row Layer    Maximum-Flux-Residual          L2-NORM 
          0                 1           2             4    7     1       0.9435568970E-02       4    7    1         0.4938624072E+00      0.1354968185E+01
          0                 2           2             4    7     1      -0.1246296556E-01       4    7    1        -0.6693862899E+00      0.1628222376E+01
          0                 3           2             4    7     1       0.1207984026E-01       4    7    1         0.6668568457E+00      0.1632190431E+01
          0                 4           2             4    7     1      -0.4806726439E-03       4    7    1        -0.2727475023E-01      0.6676079080E-01
          0                 5           1             4    7     1       0.5928942349E-05       4    7    1         0.3457741304E-03      0.8468960185E-03

    ------------------------------------------------
       NWT REQUIRED            5 OUTER ITERATIONS 
       AND A TOTAL OF          9 INNER ITERATIONS.
    ------------------------------------------------

 NO OUTPUT CONTROL FOR STRESS PERIOD   17   TIME STEP    3
 
 SOLVING FOR HEAD 
                                                   Max.-Head-Change                         Max.-Flux-Residual
  Residual-Control   Outer-Iter.   Inner-Iter.     Column Row Layer    Maximum-Head-Change  Column Row Layer    Maximum-Flux-Residual          L2-NORM 
          0                 1           2             4    7     1       0.9367039446E-02       4    7    1         0.4902618018E+00      0.1344236402E+01
          0                 2           2             4    7     1      -0.9111591009E-03       4    7    1        -0.4902628603E-01      0.1343808495E+00
          0                 3           2             4    7     1      -0.1148011172E-01       5    6    1        -0.6174166531E+00      0.1518607357E+01
          0                 4           2             4    7     1       0.1201180917E-01       5    6    1         0.6631526293E+00      0.1624329391E+01
          0                 5           2             4    7     1      -0.4780796354E-03       5    8    1        -0.2712970404E-01      0.6645134161E-01
          0                 6           1             4    7     1       0.5902708599E-05       5    8    1         0.3442704372E-03      0.8432553481E-03

    ------------------------------------------------
       NWT REQUIRED            6 OUTER ITERATIONS 
       AND A TOTAL OF         11 INNER ITERATIONS.
    ------------------------------------------------

 NO OUTPUT CONTROL FOR STRESS PERIOD   17   TIME STEP    4
 
 SOLVING FOR HEAD 
                                                   Max.-Head-Change                         Max.-Flux-Residual
  Residual-Control   Outer-Iter.   Inner-Iter.     Column Row Layer    Maximum-Head-Change  Column Row Layer    Maximum-Flux-Residual          L2-NORM 
          0                 1           2             4    7     1       0.9299133653E-02       4    7    1         0.4866939461E+00      0.1334260846E+01
          0                 2           2             4    7     1      -0.9045536923E-03       4    7    1        -0.4866949868E-01      0.1333954271E+00
          0                 3           2             4    7     1      -0.1148058854E-01       5    6    1        -0.6174342321E+00      0.1518656278E+01
          0                 4           2             4    7     1       0.1201185569E-01       5    6    1         0.6631548136E+00      0.1624335316E+01
          0                 5           2             4    7     1      -0.4780779856E-03       5    8    1        -0.2712959715E-01      0.6645109665E-01
          0                 6           1             4    7     1       0.5897237408E-05       5    8    1         0.3439511661E-03      0.8424730525E-03

    ------------------------------------------------
       NWT REQUIRED            6 OUTER ITERATIONS 
       AND A TOTAL OF         11 INNER ITERATIONS.
    ------------------------------------------------

 NO OUTPUT CONTROL FOR STRESS PERIOD   17   TIME STEP    5
 
 SOLVING FOR HEAD 
                                                   Max.-Head-Change                         Max.-Flux-Residual
  Residual-Control   Outer-Iter.   Inner-Iter.     Column Row Layer    Maximum-Head-Change  Column Row Layer    Maximum-Flux-Residual          L2-NORM 
          0                 1           2             4    7     1       0.9232116930E-02       4    7    1         0.4831731011E+00      0.1324927221E+01
          0                 2           2             4    7     1      -0.8980349051E-03       4    7    1        -0.4831741988E-01      0.1324713386E+00
          0                 3           2             4    7     1      -0.1148105808E-01       5    6    1        -0.6174515847E+00      0.1518704580E+01
          0                 4           2             4    7     1       0.1201190139E-01       5    6    1         0.6631569623E+00      0.1624341134E+01
          0                 5           2             4    7     1      -0.4780805046E-03       5    8    1        -0.2712972698E-01      0.6645143211E-01
          0                 6           1             4    7     1       0.5899312614E-05       5    8    1         0.3440720307E-03      0.8427691874E-03

    ------------------------------------------------
       NWT REQUIRED            6 OUTER ITERATIONS 
       AND A TOTAL OF         11 INNER ITERATIONS.
    ------------------------------------------------

 NO OUTPUT CONTROL FOR STRESS PERIOD   17   TIME STEP    6
 
 SOLVING FOR HEAD 
                                                   Max.-Head-Change                         Max.-Flux-Residual
  Residual-Control   Outer-Iter.   Inner-Iter.     Column Row Layer    Maximum-Head-Change  Column Row Layer    Maximum-Flux-Residual          L2-NORM 
          0                 1           2             4    7     1       0.9165699362E-02       4    7    1         0.4796836812E+00      0.1316120587E+01
          0                 2           2             4    7     1      -0.8915740568E-03       4    7    1        -0.4796846518E-01      0.1315977713E+00
          0                 3           2             4    7     1      -0.1148152394E-01       5    6    1        -0.6174687405E+00      0.1518757936E+01
          0                 4           2             4    7     1       0.1201194542E-01       5    6    1         0.6631590177E+00      0.1624346930E+01
          0                 5           2             4    7     1      -0.4780815568E-03       5    8    1        -0.2712977367E-01      0.6645156516E-01
          0                 6           1             4    7     1       0.5899325608E-05       5    8    1         0.3440726268E-03      0.8427711739E-03

    ------------------------------------------------
       NWT REQUIRED            6 OUTER ITERATIONS 
       AND A TOTAL OF         11 INNER ITERATIONS.
    ------------------------------------------------

 NO OUTPUT CONTROL FOR STRESS PERIOD   17   TIME STEP    7
 
 SOLVING FOR HEAD 
                                                   Max.-Head-Change                         Max.-Flux-Residual
  Residual-Control   Outer-Iter.   Inner-Iter.     Column Row Layer    Maximum-Head-Change  Column Row Layer    Maximum-Flux-Residual          L2-NORM 
          0                 1           2             4    7     1       0.9100144711E-02       4    7    1         0.4762399982E+00      0.1307759567E+01
          0                 2           2             4    7     1      -0.8851975572E-03       4    7    1        -0.4762410624E-01      0.1307669461E+00
          0                 3           2             4    7     1      -0.1148198351E-01       5    6    1        -0.6174857190E+00      0.1518800499E+01
          0                 4           2             4    7     1       0.1201198978E-01       5    6    1         0.6631611004E+00      0.1624352389E+01
          0                 5           2             4    7     1      -0.4780854229E-03       5    8    1        -0.2712998018E-01      0.6645208780E-01
          0                 6           1             4    7     1       0.5901417168E-05       5    8    1         0.3441944525E-03      0.8430700990E-03

    ------------------------------------------------
       NWT REQUIRED            6 OUTER ITERATIONS 
       AND A TOTAL OF         11 INNER ITERATIONS.
    ------------------------------------------------

 NO OUTPUT CONTROL FOR STRESS PERIOD   17   TIME STEP    8
 
 SOLVING FOR HEAD 
                                                   Max.-Head-Change                         Max.-Flux-Residual
  Residual-Control   Outer-Iter.   Inner-Iter.     Column Row Layer    Maximum-Head-Change  Column Row Layer    Maximum-Flux-Residual          L2-NORM 
          0                 1           2             4    7     1       0.9035164765E-02       4    7    1         0.4728263854E+00      0.1299762810E+01
          0                 2           2             4    7     1      -0.8788767558E-03       4    7    1        -0.4728274331E-01      0.1299711355E+00
          0                 3           2             4    7     1      -0.1148243831E-01       5    6    1        -0.6175024370E+00      0.1518847773E+01
          0                 4           2             4    7     1       0.1201203347E-01       5    6    1         0.6631631451E+00      0.1624357946E+01
          0                 5           2             4    7     1      -0.4780857613E-03       5    8    1        -0.2712998679E-01      0.6645212024E-01
          0                 6           1             4    7     1       0.5899377135E-05       5    8    1         0.3440753330E-03      0.8427827540E-03

    ------------------------------------------------
       NWT REQUIRED            6 OUTER ITERATIONS 
       AND A TOTAL OF         11 INNER ITERATIONS.
    ------------------------------------------------

 NO OUTPUT CONTROL FOR STRESS PERIOD   17   TIME STEP    9
 
 SOLVING FOR HEAD 
                                                   Max.-Head-Change                         Max.-Flux-Residual
  Residual-Control   Outer-Iter.   Inner-Iter.     Column Row Layer    Maximum-Head-Change  Column Row Layer    Maximum-Flux-Residual          L2-NORM 
          0                 1           2             4    7     1       0.8971023547E-02       4    7    1         0.4694572414E+00      0.1292082974E+01
          0                 2           2             4    7     1      -0.8726376790E-03       4    7    1        -0.4694583475E-01      0.1292057526E+00
          0                 3           2             4    7     1      -0.1148288839E-01       5    6    1        -0.6175190564E+00      0.1518894822E+01
          0                 4           2             4    7     1       0.1201207652E-01       5    6    1         0.6631651629E+00      0.1624363433E+01
          0                 5           2             4    7     1      -0.4780867745E-03       5    8    1        -0.2713003180E-01      0.6645224756E-01
          0                 6           1             4    7     1       0.5899389905E-05       5    8    1         0.3440759160E-03      0.8427793099E-03

    ------------------------------------------------
       NWT REQUIRED            6 OUTER ITERATIONS 
       AND A TOTAL OF         11 INNER ITERATIONS.
    ------------------------------------------------

 NO OUTPUT CONTROL FOR STRESS PERIOD   17   TIME STEP   10
 
 SOLVING FOR HEAD 
                                                   Max.-Head-Change                         Max.-Flux-Residual
  Residual-Control   Outer-Iter.   Inner-Iter.     Column Row Layer    Maximum-Head-Change  Column Row Layer    Maximum-Flux-Residual          L2-NORM 
          0                 1           2             4    7     1       0.8907570326E-02       4    7    1         0.4661242487E+00      0.1284664135E+01
          0                 2           2             4    7     1      -0.8664699128E-03       4    7    1        -0.4661252650E-01      0.1284701516E+00
          0                 3           2             4    7     1      -0.1148324651E-01       5    6    1        -0.6175355425E+00      0.1518940869E+01
          0                 4           2             4    7     1       0.1201203441E-01       5    6    1         0.6631672508E+00      0.1624227770E+01
          0                 5           2             4    7     1      -0.4780923150E-03       4    6    1        -0.2714866892E-01      0.6646144559E-01
          0                 6           1             4    7     1       0.5901502300E-05       4    6    1         0.3444317508E-03      0.8432561274E-03

    ------------------------------------------------
       NWT REQUIRED            6 OUTER ITERATIONS 
       AND A TOTAL OF         11 INNER ITERATIONS.
    ------------------------------------------------

 NO OUTPUT CONTROL FOR STRESS PERIOD   17   TIME STEP   11
 
 SOLVING FOR HEAD 
                                                   Max.-Head-Change                         Max.-Flux-Residual
  Residual-Control   Outer-Iter.   Inner-Iter.     Column Row Layer    Maximum-Head-Change  Column Row Layer    Maximum-Flux-Residual          L2-NORM 
          0                 1           2             4    7     1       0.8844635818E-02       4    7    1         0.4628193433E+00      0.1277465833E+01
          0                 2           2             4    7     1      -0.8603435545E-03       4    7    1        -0.4628204188E-01      0.1277464969E+00
          0                 3           2             4    7     1      -0.1148368763E-01       5    6    1        -0.6175518049E+00      0.1518987778E+01
          0                 4           2             4    7     1       0.1201208958E-01       5    6    1         0.6631692238E+00      0.1624259836E+01
          0                 5           2             4    7     1      -0.4781051072E-03       4    6    1        -0.2720494670E-01      0.6648435521E-01
          0                 6           1             4    7     1       0.5899616177E-05       4    6    1         0.3450262757E-03      0.8431850782E-03

    ------------------------------------------------
       NWT REQUIRED            6 OUTER ITERATIONS 
       AND A TOTAL OF         11 INNER ITERATIONS.
    ------------------------------------------------

 NO OUTPUT CONTROL FOR STRESS PERIOD   17   TIME STEP   12
 
 SOLVING FOR HEAD 
                                                   Max.-Head-Change                         Max.-Flux-Residual
  Residual-Control   Outer-Iter.   Inner-Iter.     Column Row Layer    Maximum-Head-Change  Column Row Layer    Maximum-Flux-Residual          L2-NORM 
          0                 1           2             4    7     1       0.8782500981E-02       4    7    1         0.4595565012E+00      0.1270457611E+01
          0                 2           2             4    7     1      -0.8542993684E-03       4    7    1        -0.4595574875E-01      0.1270458354E+00
          0                 3           2             4    7     1      -0.1148412331E-01       5    6    1        -0.6175678827E+00      0.1519033861E+01
          0                 4           2             4    7     1       0.1201214345E-01       5    6    1         0.6631711441E+00      0.1624292373E+01
          0                 5           2             4    7     1      -0.4781190201E-03       4    6    1        -0.2726028143E-01      0.6650748211E-01
          0                 6           1             4    7     1       0.5899787785E-05       4    6    1         0.3457285434E-03      0.8434794822E-03

    ------------------------------------------------
       NWT REQUIRED            6 OUTER ITERATIONS 
       AND A TOTAL OF         11 INNER ITERATIONS.
    ------------------------------------------------

 NO OUTPUT CONTROL FOR STRESS PERIOD   17   TIME STEP   13
 
 SOLVING FOR HEAD 
                                                   Max.-Head-Change                         Max.-Flux-Residual
  Residual-Control   Outer-Iter.   Inner-Iter.     Column Row Layer    Maximum-Head-Change  Column Row Layer    Maximum-Flux-Residual          L2-NORM 
          0                 1           2             4    7     1       0.8721013444E-02       4    7    1         0.4563275366E+00      0.1263610482E+01
          0                 2           2             4    7     1      -0.8483181477E-03       4    7    1        -0.4563284340E-01      0.1263607970E+00
          0                 3           2             4    7     1      -0.1148455350E-01       5    6    1        -0.6175837039E+00      0.1519079094E+01
          0                 4           2             4    7     1       0.1201219639E-01       5    6    1         0.6631730266E+00      0.1624323825E+01
          0                 5           2             4    7     1      -0.4781333736E-03       4    6    1        -0.2731466771E-01      0.6653034540E-01
          0                 6           1             4    7     1       0.5899964994E-05       4    6    1         0.3464329645E-03      0.8437802215E-03

    ------------------------------------------------
       NWT REQUIRED            6 OUTER ITERATIONS 
       AND A TOTAL OF         11 INNER ITERATIONS.
    ------------------------------------------------

 NO OUTPUT CONTROL FOR STRESS PERIOD   17   TIME STEP   14
 
 SOLVING FOR HEAD 
                                                   Max.-Head-Change                         Max.-Flux-Residual
  Residual-Control   Outer-Iter.   Inner-Iter.     Column Row Layer    Maximum-Head-Change  Column Row Layer    Maximum-Flux-Residual          L2-NORM 
          0                 1           2             4    7     1       0.8660158591E-02       4    7    1         0.4531321337E+00      0.1256895876E+01
          0                 2           2             4    7     1      -0.8423987470E-03       4    7    1        -0.4531330911E-01      0.1256886545E+00
          0                 3           2             4    7     1      -0.1148497911E-01       5    6    1        -0.6175994312E+00      0.1519124083E+01
          0                 4           2             4    7     1       0.1201224953E-01       5    6    1         0.6631749423E+00      0.1624349884E+01
          0                 5           2             4    7     1      -0.4781482159E-03       4    6    1        -0.2736812081E-01      0.6655274064E-01
          0                 6           1             4    7     1       0.5900147804E-05       4    6    1         0.3471252812E-03      0.8440785050E-03

    ------------------------------------------------
       NWT REQUIRED            6 OUTER ITERATIONS 
       AND A TOTAL OF         11 INNER ITERATIONS.
    ------------------------------------------------

 NO OUTPUT CONTROL FOR STRESS PERIOD   17   TIME STEP   15
 
 SOLVING FOR HEAD 
                                                   Max.-Head-Change                         Max.-Flux-Residual
  Residual-Control   Outer-Iter.   Inner-Iter.     Column Row Layer    Maximum-Head-Change  Column Row Layer    Maximum-Flux-Residual          L2-NORM 
          0                 1           2             4    7     1       0.8599933040E-02       4    7    1         0.4499695345E+00      0.1250311193E+01
          0                 2           2             4    7     1      -0.8365405605E-03       4    7    1        -0.4499705521E-01      0.1250291716E+00
          0                 3           2             4    7     1      -0.1148540046E-01       5    6    1        -0.6176149629E+00      0.1519168750E+01
          0                 4           2             4    7     1       0.1201230075E-01       5    6    1         0.6631767648E+00      0.1624375367E+01
          0                 5           2             4    7     1      -0.4781613667E-03       4    6    1        -0.2742053700E-01      0.6657461221E-01
          0                 6           1             4    7     1       0.5898947778E-05       4    6    1         0.3477247199E-03      0.8441814229E-03

    ------------------------------------------------
       NWT REQUIRED            6 OUTER ITERATIONS 
       AND A TOTAL OF         11 INNER ITERATIONS.
    ------------------------------------------------

 NO OUTPUT CONTROL FOR STRESS PERIOD   17   TIME STEP   16
 
 SOLVING FOR HEAD 
                                                   Max.-Head-Change                         Max.-Flux-Residual
  Residual-Control   Outer-Iter.   Inner-Iter.     Column Row Layer    Maximum-Head-Change  Column Row Layer    Maximum-Flux-Residual          L2-NORM 
          0                 1           2             4    7     1       0.8540325980E-02       4    7    1         0.4468395643E+00      0.1243834545E+01
          0                 2           2             4    7     1      -0.8307422600E-03       4    7    1        -0.4468404939E-01      0.1243802221E+00
          0                 3           2             4    7     1      -0.1148581792E-01       5    6    1        -0.6176303174E+00      0.1519213055E+01
          0                 4           2             4    7     1       0.1201235224E-01       5    6    1         0.6631786146E+00      0.1624400550E+01
          0                 5           2             4    7     1      -0.4781750184E-03       4    6    1        -0.2747206417E-01      0.6659627467E-01
          0                 6           1             4    7     1       0.5900478587E-05       4    6    1         0.3484715921E-03      0.8446784006E-03

    ------------------------------------------------
       NWT REQUIRED            6 OUTER ITERATIONS 
       AND A TOTAL OF         11 INNER ITERATIONS.
    ------------------------------------------------

 NO OUTPUT CONTROL FOR STRESS PERIOD   17   TIME STEP   17
 
 SOLVING FOR HEAD 
                                                   Max.-Head-Change                         Max.-Flux-Residual
  Residual-Control   Outer-Iter.   Inner-Iter.     Column Row Layer    Maximum-Head-Change  Column Row Layer    Maximum-Flux-Residual          L2-NORM 
          0                 1           2             4    7     1       0.8481331488E-02       4    7    1         0.4437416609E+00      0.1237452740E+01
          0                 2           2             4    7     1      -0.8250035468E-03       4    7    1        -0.4437425030E-01      0.1237406012E+00
          0                 3           2             4    7     1      -0.1148623234E-01       5    6    1        -0.6176456009E+00      0.1519257187E+01
          0                 4           2             4    7     1       0.1201231401E-01       5    6    1         0.6631805588E+00      0.1624425119E+01
          0                 5           2             4    7     1      -0.4780969491E-03       5    8    1        -0.2713071729E-01      0.6645512463E-01
          0                 6           1             4    7     1       0.5899515587E-05       5    8    1         0.3440846044E-03      0.8428141659E-03

    ------------------------------------------------
       NWT REQUIRED            6 OUTER ITERATIONS 
       AND A TOTAL OF         11 INNER ITERATIONS.
    ------------------------------------------------

 NO OUTPUT CONTROL FOR STRESS PERIOD   17   TIME STEP   18
 
 SOLVING FOR HEAD 
                                                   Max.-Head-Change                         Max.-Flux-Residual
  Residual-Control   Outer-Iter.   Inner-Iter.     Column Row Layer    Maximum-Head-Change  Column Row Layer    Maximum-Flux-Residual          L2-NORM 
          0                 1           2             4    7     1       0.8422937111E-02       4    7    1         0.4406755198E+00      0.1231154601E+01
          0                 2           2             4    7     1      -0.8193233461E-03       4    7    1        -0.4406763485E-01      0.1231092921E+00
          0                 3           2             4    7     1      -0.1148664034E-01       5    6    1        -0.6176606270E+00      0.1519300452E+01
          0                 4           2             4    7     1       0.1201235189E-01       5    6    1         0.6631823260E+00      0.1624429946E+01
          0                 5           2             4    7     1      -0.4781005578E-03       5    8    1        -0.2713091062E-01      0.6645560870E-01
          0                 6           1             4    7     1       0.5901604123E-05       5    8    1         0.3442062571E-03      0.8431085833E-03

    ------------------------------------------------
       NWT REQUIRED            6 OUTER ITERATIONS 
       AND A TOTAL OF         11 INNER ITERATIONS.
    ------------------------------------------------

 NO OUTPUT CONTROL FOR STRESS PERIOD   17   TIME STEP   19
 
 SOLVING FOR HEAD 
                                                   Max.-Head-Change                         Max.-Flux-Residual
  Residual-Control   Outer-Iter.   Inner-Iter.     Column Row Layer    Maximum-Head-Change  Column Row Layer    Maximum-Flux-Residual          L2-NORM 
          0                 1           2             4    7     1       0.8365272094E-02       4    7    1         0.4376478303E+00      0.1224941003E+01
          0                 2           2             4    7     1      -0.8137140266E-03       4    7    1        -0.4376486103E-01      0.1224863017E+00
          0                 3           2             4    7     1      -0.1148704346E-01       5    6    1        -0.6176754693E+00      0.1519343368E+01
          0                 4           2             4    7     1       0.1201238947E-01       5    6    1         0.6631840804E+00      0.1624434738E+01
          0                 5           2             4    7     1      -0.4780999526E-03       5    8    1        -0.2713086514E-01      0.6645551764E-01
          0                 6           1             4    7     1       0.5899552552E-05       5    8    1         0.3440864634E-03      0.8428218681E-03

    ------------------------------------------------
       NWT REQUIRED            6 OUTER ITERATIONS 
       AND A TOTAL OF         11 INNER ITERATIONS.
    ------------------------------------------------

 NO OUTPUT CONTROL FOR STRESS PERIOD   17   TIME STEP   20
 
 SOLVING FOR HEAD 
                                                   Max.-Head-Change                         Max.-Flux-Residual
  Residual-Control   Outer-Iter.   Inner-Iter.     Column Row Layer    Maximum-Head-Change  Column Row Layer    Maximum-Flux-Residual          L2-NORM 
          0                 1           2             4    7     1       0.8308051467E-02       4    7    1         0.4346432827E+00      0.1218791205E+01
          0                 2           2             4    7     1      -0.8081483443E-03       4    7    1        -0.4346442344E-01      0.1218695605E+00
          0                 3           2             4    7     1      -0.1148744315E-01       5    6    1        -0.6176901627E+00      0.1519386061E+01
          0                 4           2             4    7     1       0.1201242611E-01       5    6    1         0.6631857846E+00      0.1624439418E+01
          0                 5           2             4    7     1      -0.4781042120E-03       5    8    1        -0.2713109557E-01      0.6645609802E-01
          0                 6           1             4    7     1       0.5903011602E-05       5    8    1         0.3442880904E-03      0.8433111838E-03

    ------------------------------------------------
       NWT REQUIRED            6 OUTER ITERATIONS 
       AND A TOTAL OF         11 INNER ITERATIONS.
    ------------------------------------------------

 NO OUTPUT CONTROL FOR STRESS PERIOD   17   TIME STEP   21
 
 SOLVING FOR HEAD 
                                                   Max.-Head-Change                         Max.-Flux-Residual
  Residual-Control   Outer-Iter.   Inner-Iter.     Column Row Layer    Maximum-Head-Change  Column Row Layer    Maximum-Flux-Residual          L2-NORM 
          0                 1           2             4    7     1       0.8251544458E-02       4    7    1         0.4316764507E+00      0.1212717202E+01
          0                 2           2             4    7     1      -0.8026515967E-03       4    7    1        -0.4316773158E-01      0.1212605615E+00
          0                 3           2             4    7     1      -0.1148783851E-01       5    6    1        -0.6177047017E+00      0.1519428124E+01
          0                 4           2             4    7     1       0.1201246321E-01       5    6    1         0.6631875177E+00      0.1624444140E+01
          0                 5           2             4    7     1      -0.4781042879E-03       5    8    1        -0.2713108872E-01      0.6645609016E-01
          0                 6           1             4    7     1       0.5901650049E-05       5    8    1         0.3442085160E-03      0.8431176921E-03

    ------------------------------------------------
       NWT REQUIRED            6 OUTER ITERATIONS 
       AND A TOTAL OF         11 INNER ITERATIONS.
    ------------------------------------------------

 NO OUTPUT CONTROL FOR STRESS PERIOD   17   TIME STEP   22
 
 SOLVING FOR HEAD 
                                                   Max.-Head-Change                         Max.-Flux-Residual
  Residual-Control   Outer-Iter.   Inner-Iter.     Column Row Layer    Maximum-Head-Change  Column Row Layer    Maximum-Flux-Residual          L2-NORM 
          0                 1           2             4    7     1       0.8195601870E-02       4    7    1         0.4287392816E+00      0.1206699335E+01
          0                 2           2             4    7     1      -0.7972097516E-03       4    7    1        -0.4287400602E-01      0.1206573437E+00
          0                 3           2             4    7     1      -0.1148823117E-01       5    6    1        -0.6177191792E+00      0.1519470011E+01
          0                 4           2             4    7     1       0.1201250194E-01       5    6    1         0.6631893459E+00      0.1624449101E+01
          0                 5           2             4    7     1      -0.4781065300E-03       5    8    1        -0.2713120494E-01      0.6645639552E-01
          0                 6           1             4    7     1       0.5901677717E-05       5    8    1         0.3442099944E-03      0.8431196507E-03

    ------------------------------------------------
       NWT REQUIRED            6 OUTER ITERATIONS 
       AND A TOTAL OF         11 INNER ITERATIONS.
    ------------------------------------------------

 NO OUTPUT CONTROL FOR STRESS PERIOD   17   TIME STEP   23
 
 SOLVING FOR HEAD 
                                                   Max.-Head-Change                         Max.-Flux-Residual
  Residual-Control   Outer-Iter.   Inner-Iter.     Column Row Layer    Maximum-Head-Change  Column Row Layer    Maximum-Flux-Residual          L2-NORM 
          0                 1           2             4    7     1       0.8140215533E-02       4    7    1         0.4258313770E+00      0.1200738879E+01
          0                 2           2             4    7     1      -0.7918220867E-03       4    7    1        -0.4258321076E-01      0.1200593748E+00
          0                 3           2             4    7     1      -0.1148861777E-01       5    6    1        -0.6177334124E+00      0.1519511293E+01
          0                 4           2             4    7     1       0.1201253669E-01       5    6    1         0.6631909582E+00      0.1624453530E+01
          0                 5           2             4    7     1      -0.4781072125E-03       5    8    1        -0.2713123281E-01      0.6645647693E-01
          0                 6           1             4    7     1       0.5901686118E-05       5    8    1         0.3442103568E-03      0.8431190221E-03

    ------------------------------------------------
       NWT REQUIRED            6 OUTER ITERATIONS 
       AND A TOTAL OF         11 INNER ITERATIONS.
    ------------------------------------------------

 NO OUTPUT CONTROL FOR STRESS PERIOD   17   TIME STEP   24
 
 SOLVING FOR HEAD 
                                                   Max.-Head-Change                         Max.-Flux-Residual
  Residual-Control   Outer-Iter.   Inner-Iter.     Column Row Layer    Maximum-Head-Change  Column Row Layer    Maximum-Flux-Residual          L2-NORM 
          0                 1           2             4    7     1       0.8085376870E-02       4    7    1         0.4229523131E+00      0.1194836354E+01
          0                 2           2             4    7     1      -0.7864877628E-03       4    7    1        -0.4229530321E-01      0.1194673352E+00
          0                 3           2             4    7     1      -0.1148900059E-01       5    6    1        -0.6177474648E+00      0.1519552284E+01
          0                 4           2             4    7     1       0.1201257264E-01       5    6    1         0.6631926374E+00      0.1624458119E+01
          0                 5           2             4    7     1      -0.4781072429E-03       5    8    1        -0.2713122370E-01      0.6645646777E-01
          0                 6           1             4    7     1       0.5899642837E-05       5    8    1         0.3440910095E-03      0.8428267222E-03

    ------------------------------------------------
       NWT REQUIRED            6 OUTER ITERATIONS 
       AND A TOTAL OF         11 INNER ITERATIONS.
    ------------------------------------------------

 NO OUTPUT CONTROL FOR STRESS PERIOD   17   TIME STEP   25
 
 SOLVING FOR HEAD 
                                                   Max.-Head-Change                         Max.-Flux-Residual
  Residual-Control   Outer-Iter.   Inner-Iter.     Column Row Layer    Maximum-Head-Change  Column Row Layer    Maximum-Flux-Residual          L2-NORM 
          0                 1           2             4    7     1       0.8031216915E-02       4    7    1         0.4201089833E+00      0.1188991224E+01
          0                 2           2             4    7     1      -0.7812195256E-03       4    7    1        -0.4201097267E-01      0.1188812552E+00
          0                 3           2             4    7     1      -0.1148937985E-01       5    6    1        -0.6177614577E+00      0.1519592828E+01
          0                 4           2             4    7     1       0.1201260801E-01       5    6    1         0.6631942926E+00      0.1624462631E+01
          0                 5           2             4    7     1      -0.4781079504E-03       5    8    1        -0.2713125330E-01      0.6645655200E-01
          0                 6           1             4    7     1       0.5899651350E-05       5    8    1         0.3440914022E-03      0.8428304207E-03

    ------------------------------------------------
       NWT REQUIRED            6 OUTER ITERATIONS 
       AND A TOTAL OF         11 INNER ITERATIONS.
    ------------------------------------------------

 NO OUTPUT CONTROL FOR STRESS PERIOD   17   TIME STEP   26
 
 SOLVING FOR HEAD 
                                                   Max.-Head-Change                         Max.-Flux-Residual
  Residual-Control   Outer-Iter.   Inner-Iter.     Column Row Layer    Maximum-Head-Change  Column Row Layer    Maximum-Flux-Residual          L2-NORM 
          0                 1           2             4    7     1       0.7977446604E-02       4    7    1         0.4172861679E+00      0.1183186027E+01
          0                 2           2             4    7     1      -0.7759892625E-03       4    7    1        -0.4172869743E-01      0.1182993617E+00
          0                 3           2             4    7     1      -0.1148975529E-01       5    6    1        -0.6177752142E+00      0.1519632888E+01
          0                 4           2             4    7     1       0.1201264350E-01       5    6    1         0.6631959511E+00      0.1624467182E+01
          0                 5           2             4    7     1      -0.4781135646E-03       5    8    1        -0.2713156132E-01      0.6645733520E-01
          0                 6           1             4    7     1       0.5903127090E-05       5    8    1         0.3442939812E-03      0.8433279886E-03

    ------------------------------------------------
       NWT REQUIRED            6 OUTER ITERATIONS 
       AND A TOTAL OF         11 INNER ITERATIONS.
    ------------------------------------------------

 NO OUTPUT CONTROL FOR STRESS PERIOD   17   TIME STEP   27
 
 SOLVING FOR HEAD 
                                                   Max.-Head-Change                         Max.-Flux-Residual
  Residual-Control   Outer-Iter.   Inner-Iter.     Column Row Layer    Maximum-Head-Change  Column Row Layer    Maximum-Flux-Residual          L2-NORM 
          0                 1           2             4    7     1       0.7924339170E-02       4    7    1         0.4144982310E+00      0.1177440785E+01
          0                 2           2             4    7     1      -0.7708232021E-03       4    7    1        -0.4144989519E-01      0.1177231857E+00
          0                 3           2             4    7     1      -0.1149012654E-01       5    6    1        -0.6177888190E+00      0.1519672626E+01
          0                 4           2             4    7     1       0.1201267801E-01       5    6    1         0.6631975592E+00      0.1624471592E+01
          0                 5           2             4    7     1      -0.4781114362E-03       5    8    1        -0.2713143017E-01      0.6645703502E-01
          0                 6           1             4    7     1       0.5899694028E-05       5    8    1         0.3440936393E-03      0.8428352843E-03

    ------------------------------------------------
       NWT REQUIRED            6 OUTER ITERATIONS 
       AND A TOTAL OF         11 INNER ITERATIONS.
    ------------------------------------------------

 NO OUTPUT CONTROL FOR STRESS PERIOD   17   TIME STEP   28
 
 SOLVING FOR HEAD 
                                                   Max.-Head-Change                         Max.-Flux-Residual
  Residual-Control   Outer-Iter.   Inner-Iter.     Column Row Layer    Maximum-Head-Change  Column Row Layer    Maximum-Flux-Residual          L2-NORM 
          0                 1           2             4    7     1       0.7871749695E-02       4    7    1         0.4117373253E+00      0.1171747989E+01
          0                 2           2             4    7     1      -0.7657078023E-03       4    7    1        -0.4117381098E-01      0.1171523891E+00
          0                 3           2             4    7     1      -0.1149049288E-01       5    6    1        -0.6178022992E+00      0.1519711853E+01
          0                 4           2             4    7     1       0.1201271041E-01       5    6    1         0.6631990593E+00      0.1624475698E+01
          0                 5           2             4    7     1      -0.4781120257E-03       5    8    1        -0.2713145316E-01      0.6645708429E-01
          0                 6           1             4    7     1       0.5899701533E-05       5    8    1         0.3440939329E-03      0.8428332941E-03

    ------------------------------------------------
       NWT REQUIRED            6 OUTER ITERATIONS 
       AND A TOTAL OF         11 INNER ITERATIONS.
    ------------------------------------------------

 NO OUTPUT CONTROL FOR STRESS PERIOD   17   TIME STEP   29
 
 SOLVING FOR HEAD 
                                                   Max.-Head-Change                         Max.-Flux-Residual
  Residual-Control   Outer-Iter.   Inner-Iter.     Column Row Layer    Maximum-Head-Change  Column Row Layer    Maximum-Flux-Residual          L2-NORM 
          0                 1           2             4    7     1       0.7819642354E-02       4    7    1         0.4090032750E+00      0.1155357467E+01
          0                 2           2             4    7     1      -0.7606393017E-03       4    7    1        -0.4090041233E-01      0.1155335603E+00
          0                 3           2             4    7     1      -0.1149085707E-01       5    6    1        -0.6178156127E+00      0.1519766440E+01
          0                 4           2             4    7     1       0.1201274520E-01       5    6    1         0.6632006867E+00      0.1624460381E+01
          0                 5           2             4    7     1      -0.4781176124E-03       5    8    1        -0.2713175990E-01      0.6645683442E-01
          0                 6           1             4    7     1       0.5903177049E-05       5    8    1         0.3442965026E-03      0.8433243803E-03

    ------------------------------------------------
       NWT REQUIRED            6 OUTER ITERATIONS 
       AND A TOTAL OF         11 INNER ITERATIONS.
    ------------------------------------------------

 NO OUTPUT CONTROL FOR STRESS PERIOD   17   TIME STEP   30



 STREAM LISTING     PERIOD     17   STEP       30

 LAYER ROW COL. STREAM  RCH.  FLOW INTO     FLOW TO   FLOW OUT OF   OVRLND.     DIRECT     STREAM       STREAM     STREAM     STREAM   STREAMBED  STREAMBED
                SEG.NO.  NO.  STRM. RCH.    AQUIFER    STRM. RCH.    RUNOFF     PRECIP       ET          HEAD       DEPTH      WIDTH   CONDCTNC.   GRADIENT

   1    1    1     1     1    2.4716E+01  2.4383E-01   2.4472E+01  0.000E+00  0.000E+00  0.000E+00  1.09422E+03  1.174E+00  1.298E+01  5.842E-02  1.391E+00
   1    2    2     1     2    2.4472E+01  3.7705E-01   2.4095E+01  0.000E+00  0.000E+00  0.000E+00  1.08923E+03  1.169E+00  1.292E+01  9.043E-02  1.390E+00
   1    3    3     1     3    2.4095E+01  3.2100E-01   2.3774E+01  0.000E+00  0.000E+00  0.000E+00  1.08358E+03  1.164E+00  1.285E+01  7.709E-02  1.388E+00
   1    3    4     1     4    2.3774E+01  2.9513E-01   2.3479E+01  0.000E+00  0.000E+00  0.000E+00  1.07857E+03  1.159E+00  1.278E+01  7.096E-02  1.386E+00
   1    4    5     2     1    2.1479E+01  3.1960E-01   2.1159E+01  0.000E+00  0.000E+00  0.000E+00  1.07303E+03  1.097E+00  1.200E+01  7.800E-02  1.366E+00
   1    5    6     2     2    2.1159E+01  2.4532E-01   2.0914E+01  0.000E+00  0.000E+00  0.000E+00  1.06760E+03  1.089E+00  1.200E+01  6.000E-02  1.363E+00
   1    6    6     2     3    2.0914E+01  2.4487E-01   2.0669E+01  0.000E+00  0.000E+00  0.000E+00  1.06287E+03  1.081E+00  1.200E+01  6.000E-02  1.360E+00
   1    7    6     2     4    2.0669E+01  2.4441E-01   2.0424E+01  0.000E+00  0.000E+00  0.000E+00  1.05815E+03  1.073E+00  1.200E+01  6.000E-02  1.358E+00
   1    8    6     2     5    2.0424E+01  2.4395E-01   2.0180E+01  0.000E+00  0.000E+00  0.000E+00  1.05342E+03  1.066E+00  1.200E+01  6.000E-02  1.355E+00
   1    3    5     3     1    2.0000E+00  2.8252E-01   1.7175E+00  0.000E+00  0.000E+00  0.000E+00  1.07555E+03  1.909E+00  9.636E+00  7.227E-02  1.955E+00
   1    3    6     3     2    1.7175E+00  2.4905E-01   1.4684E+00  0.000E+00  0.000E+00  0.000E+00  1.07264E+03  1.727E+00  8.909E+00  6.682E-02  1.864E+00
   1    3    7     3     3    1.4684E+00  1.9718E-01   1.2712E+00  0.000E+00  0.000E+00  0.000E+00  1.06987E+03  1.555E+00  8.218E+00  5.547E-02  1.777E+00
   1    4    8     3     4    1.2712E+00  2.2567E-01   1.0456E+00  0.000E+00  0.000E+00  0.000E+00  1.06682E+03  1.364E+00  7.455E+00  6.709E-02  1.682E+00
   1    5    8     3     5    1.0456E+00  1.5790E-01   8.8768E-01  0.000E+00  0.000E+00  0.000E+00  1.06362E+03  1.164E+00  6.655E+00  4.991E-02  1.582E+00
   1    6    8     3     6    8.8768E-01  5.5980E-02   8.3170E-01  0.000E+00  0.000E+00  0.000E+00  1.06158E+03  1.036E+00  6.145E+00  1.844E-02  1.518E+00
   1    5   10     4     1    1.0000E+01  9.0919E-02   9.9091E+00  0.000E+00  0.000E+00  0.000E+00  1.07836E+03  6.368E-01  1.000E+01  2.500E-02  1.212E+00
   1    5    9     4     2    9.9091E+00  1.8158E-01   9.7275E+00  0.000E+00  0.000E+00  0.000E+00  1.07154E+03  6.315E-01  1.000E+01  5.000E-02  1.211E+00
   1    6    8     4     3    9.7275E+00  1.2689E-01   9.6006E+00  0.000E+00  0.000E+00  0.000E+00  1.06381E+03  6.256E-01  1.000E+01  3.500E-02  1.209E+00
   1    6    8     5     1    1.0432E+01  2.2686E-01   1.0205E+01  0.000E+00  0.000E+00  0.000E+00  1.05868E+03  6.790E-01  1.542E+01  6.166E-02  1.226E+00
   1    7    7     5     2    1.0205E+01  2.7894E-01   9.9265E+00  0.000E+00  0.000E+00  0.000E+00  1.05417E+03  6.732E-01  1.519E+01  7.594E-02  1.224E+00
   1    8    7     5     3    9.9265E+00  1.9221E-01   9.7343E+00  0.000E+00  0.000E+00  0.000E+00  1.04992E+03  6.676E-01  1.497E+01  5.241E-02  1.223E+00
   1    8    6     5     4    9.7343E+00  1.3577E-01   9.5985E+00  0.000E+00  0.000E+00  0.000E+00  1.04691E+03  6.637E-01  1.482E+01  3.706E-02  1.221E+00
   1    9    6     6     1    2.6059E+01  2.5489E-01   2.5804E+01  0.000E+00  0.000E+00  0.000E+00  1.04398E+03  1.248E+00  1.200E+01  6.000E-02  1.416E+00
   1   10    7     6     2    2.5804E+01  2.5445E-01   2.5550E+01  0.000E+00  0.000E+00  0.000E+00  1.03942E+03  1.241E+00  1.200E+01  6.000E-02  1.414E+00
   1   11    7     6     3    2.5550E+01  2.5400E-01   2.5296E+01  0.000E+00  0.000E+00  0.000E+00  1.03487E+03  1.233E+00  1.200E+01  6.000E-02  1.411E+00
   1   12    7     6     4    2.5296E+01  2.5356E-01   2.5042E+01  0.000E+00  0.000E+00  0.000E+00  1.03032E+03  1.226E+00  1.200E+01  6.000E-02  1.409E+00
   1   13    7     6     5    2.5042E+01  9.2641E-03   2.5033E+01  0.000E+00  0.000E+00  0.000E+00  1.02713E+03  1.222E+00  1.200E+01  2.400E-02  1.287E-01
   1   14    9     7     1    1.5000E+02  1.3717E+00   1.4863E+02  0.000E+00  0.000E+00  0.000E+00  1.03987E+03  2.288E+00  5.529E+01  5.593E-01  8.175E-01
   1   13    8     7     2    1.4863E+02  1.9406E+00   1.4669E+02  0.000E+00  0.000E+00  0.000E+00  1.03478E+03  2.279E+00  5.525E+01  6.147E-01  1.052E+00
   1   13    7     7     3    1.4669E+02  1.6435E+00   1.4504E+02  0.000E+00  0.000E+00  0.000E+00  1.02969E+03  2.269E+00  5.521E+01  5.584E-01  9.811E-01
   1   13    6     8     1    1.7008E+02  1.0839E+00   1.6899E+02  0.000E+00  0.000E+00  0.000E+00  1.02482E+03  2.949E+00  4.276E+01  4.358E-01  8.291E-01
   1   13    5     8     2    1.6899E+02  3.2114E-01   1.6867E+02  0.000E+00  0.000E+00  0.000E+00  1.01857E+03  2.945E+00  4.270E+01  4.351E-01  2.460E-01
   1   13    4     8     3    1.6867E+02 -2.0079E+00   1.7068E+02  0.000E+00  0.000E+00  0.000E+00  1.01233E+03  2.950E+00  4.278E+01  4.359E+00 -1.535E-01
   1   13    3     8     4    1.7068E+02 -3.4769E+00   1.7416E+02  0.000E+00  0.000E+00  0.000E+00  1.00609E+03  2.968E+00  4.303E+01  4.385E+00 -2.643E-01
   1   13    2     8     5    1.7416E+02 -2.5952E+00   1.7675E+02  0.000E+00  0.000E+00  0.000E+00  9.99862E+02  2.987E+00  4.332E+01  4.414E+00 -1.960E-01
   1   13    1     8     6    1.7675E+02 -2.0157E+00   1.7877E+02  0.000E+00  0.000E+00  0.000E+00  9.94877E+02  3.002E+00  4.353E+01  2.661E+00 -2.525E-01
   1    8    6     9     1    3.7197E+00  0.0000E+00   3.7197E+00  0.000E+00  0.000E+00  0.000E+00  1.08000E+03  1.252E+00  4.000E+00  0.000E+00  1.417E+00
   1    8    5     9     2    3.7197E+00  0.0000E+00   3.7197E+00  0.000E+00  0.000E+00  0.000E+00  1.07950E+03  1.252E+00  4.000E+00  0.000E+00  1.417E+00





UNSATURATED ZONE PACKAGE VOLUMETRIC BUDGET FOR  TIME STEP    30 STRESS PERIOD   17
  ------------------------------------------------------------------------------



     CUMULATIVE VOLUMES      L**3       RATES FOR THIS TIME STEP      L**3/T
     ------------------                 ------------------------

           IN:                                      IN:
           ---                                      ---
        INFILTRATION =   670699958.6168          INFILTRATION =           4.5673

          OUT:                                     OUT:
          ----                                     ----
              UZF ET =   448719790.3219                UZF ET =           4.5675
        UZF RECHARGE =       73224.0000          UZF RECHARGE =       0.0000E+00

            IN - OUT =   221906944.2949              IN - OUT =      -2.4033E-04

          STORAGE:                                 STORAGE:
          --------                                 --------
      STORAGE CHANGE =   221907153.0042        STORAGE CHANGE =      -2.4013E-04

 PERCENT DISCREPANCY IS DIFFERENCE BETWEEN IN-OUT MINUS CHANGE IN STORAGE
 DIVIDED BY THE AVERAGE OF IN AND OUT TIMES 100

 PERCENT DISCREPANCY =          -0.00     PERCENT DISCREPANCY =           0.00






1
  VOLUMETRIC BUDGET FOR AGRICULTURAL FIELDS AT  END OF TIME STEP   30, STRESS PERIOD  17
  ------------------------------------------------------------------------------

     CUMULATIVE VOLUMES      L**3       RATES FOR THIS TIME STEP      L**3/T
     ------------------                 ------------------------

           IN:                                      IN:
           ---                                      ---
               AG WELLS  =   405755808.0000                 AG WELLS  =           0.0000
      DIVERSION SEGMENTS =   229266496.0000        DIVERSION SEGMENTS =           3.7197
       IRRIGATION PONDS  =           0.0000         IRRIGATION PONDS  =           0.0000
           GW IRRIGATION =           0.0000             GW IRRIGATION =           0.0000
           SW IRRIGATION =           0.0000             SW IRRIGATION =           0.0000
        SYSTEM LOSSES GW =           0.0000          SYSTEM LOSSES GW =           0.0000
        SYSTEM LOSSES SW =           0.0000          SYSTEM LOSSES SW =           0.0000

                TOTAL IN =   635022336.0000                  TOTAL IN =           3.7197

          OUT:                                     OUT:
          ----                                     ----
               AG WELLS  =           0.0000                 AG WELLS  =           0.0000
      DIVERSION SEGMENTS =           0.0000        DIVERSION SEGMENTS =           0.0000
       IRRIGATION PONDS  =           0.0000         IRRIGATION PONDS  =           0.0000
           GW IRRIGATION =   405755808.0000             GW IRRIGATION =           0.0000
           SW IRRIGATION =   229270976.0000             SW IRRIGATION =           3.7198
        SYSTEM LOSSES GW =           0.0000          SYSTEM LOSSES GW =           0.0000
        SYSTEM LOSSES SW =           0.0000          SYSTEM LOSSES SW =           0.0000

               TOTAL OUT =   635026816.0000                 TOTAL OUT =           3.7198

                IN - OUT =       -4480.0000                  IN - OUT =      -7.4148E-05

     PERCENT DISCREPANCY =          -0.00         PERCENT DISCREPANCY =          -0.00



1
  VOLUMETRIC BUDGET FOR ENTIRE MODEL AT END OF TIME STEP   30, STRESS PERIOD  17
  ------------------------------------------------------------------------------

     CUMULATIVE VOLUMES      L**3       RATES FOR THIS TIME STEP      L**3/T
     ------------------                 ------------------------

           IN:                                      IN:
           ---                                      ---
             STORAGE     =   670924608.0000               STORAGE     =           2.9375
       CONSTANT HEAD     =           0.0000         CONSTANT HEAD     =           0.0000
     HEAD DEP BOUNDS     =    12143203.0000       HEAD DEP BOUNDS     =           0.2882
      STREAM LEAKAGE     =   496738208.0000        STREAM LEAKAGE     =          12.3236
        UZF RECHARGE     =       73223.9531          UZF RECHARGE     =           0.0000
               GW ET     =           0.0000                 GW ET     =           0.0000
     SURFACE LEAKAGE     =           0.0000       SURFACE LEAKAGE     =           0.0000
           AG WELLS      =           0.0000             AG WELLS      =           0.0000

                TOTAL IN =  1179879296.0000                  TOTAL IN =          15.5493

          OUT:                                     OUT:
          ----                                     ----
             STORAGE     =   332354368.0000               STORAGE     =           5.1635
       CONSTANT HEAD     =           0.0000         CONSTANT HEAD     =           0.0000
     HEAD DEP BOUNDS     =    12149168.0000       HEAD DEP BOUNDS     =           0.2901
      STREAM LEAKAGE     =   429625728.0000        STREAM LEAKAGE     =          10.0957
        UZF RECHARGE     =           0.0000          UZF RECHARGE     =           0.0000
               GW ET     =           0.0000                 GW ET     =           0.0000
     SURFACE LEAKAGE     =           0.0000       SURFACE LEAKAGE     =           0.0000
           AG WELLS      =   405755808.0000             AG WELLS      =           0.0000

               TOTAL OUT =  1179885056.0000                 TOTAL OUT =          15.5493

                IN - OUT =       -5760.0000                  IN - OUT =       3.5286E-05

     PERCENT DISCREPANCY =          -0.00         PERCENT DISCREPANCY =           0.00






         TIME SUMMARY AT END OF TIME STEP   30 IN STRESS PERIOD   17
                    SECONDS     MINUTES      HOURS       DAYS        YEARS
                    -----------------------------------------------------------
   TIME STEP LENGTH  87667.      1461.1      24.352      1.0147     2.77799E-03
 STRESS PERIOD TIME 2.63000E+06  43833.      730.56      30.440     8.33397E-02
         TOTAL TIME 4.21664E+07 7.02774E+05  11713.      488.04      1.3362    
1
1
                            STRESS PERIOD NO.   18, LENGTH =   2630000.    
                            -----------------------------------------------

                              NUMBER OF TIME STEPS =    30

                               MULTIPLIER FOR DELT =     1.000

                            INITIAL TIME STEP SIZE =   87666.66    

 REUSING NON-PARAMETER GHB CELLS FROM LAST STRESS PERIOD

      2 GHB CELLS

 REUSING STREAM SEGMENT DATA FROM LAST STRESS PERIOD



            AREAL INFILTRATION RATE
 READING ON UNIT   19 WITH FORMAT: (FREE)              

            1           2           3           4           5           6           7           8           9          10
 ........................................................................................................................
   1   1.0000E-10  2.0000E-10   0.000       0.000       0.000       0.000       0.000       0.000       0.000       0.000    
   2   2.0000E-10  1.0000E-10  2.0000E-10   0.000       0.000      8.0000E-10  8.0000E-10  5.0000E-10   0.000       0.000    
   3    0.000      5.0000E-10  1.0000E-10  1.0000E-10  8.0000E-10  8.0000E-10  5.0000E-10  5.0000E-10   0.000       0.000    
   4   8.0000E-10  5.0000E-10  1.0000E-10  1.0000E-10  1.0000E-10  1.0000E-10  1.0000E-10  1.0000E-10  2.0000E-10   0.000    
   5   8.0000E-10  5.0000E-10  1.0000E-10  1.0000E-10  1.0000E-10  1.0000E-10  1.0000E-10  1.0000E-10  1.0000E-10  1.0000E-10
   6   8.0000E-10  5.0000E-10  5.0000E-10  2.0000E-10  2.0000E-10  1.0000E-10  1.0000E-10  1.0000E-10  1.0000E-10  5.0000E-10
   7   8.0000E-10  5.0000E-10  5.0000E-10  2.0000E-10  2.0000E-10  1.0000E-10  1.0000E-10  2.0000E-10  2.0000E-10   0.000    
   8    0.000      5.0000E-10  5.0000E-10  2.0000E-10  2.0000E-10  1.0000E-10  1.0000E-10  2.0000E-10  5.0000E-10   0.000    
   9    0.000      5.0000E-10  5.0000E-10  2.0000E-10  2.0000E-10  1.0000E-10  1.0000E-10  2.0000E-10  5.0000E-10   0.000    
  10    0.000      5.0000E-10  5.0000E-10  2.0000E-10  2.0000E-10  1.0000E-10  1.0000E-10  2.0000E-10  5.0000E-10  8.0000E-10
  11    0.000      1.0000E-10  1.0000E-10  1.0000E-10  1.0000E-10  1.0000E-10  1.0000E-10  2.0000E-10  5.0000E-10   0.000    
  12   1.0000E-10  1.0000E-10  1.0000E-10  1.0000E-10  1.0000E-10  1.0000E-10  1.0000E-10  1.0000E-10  2.0000E-10   0.000    
  13   1.0000E-10  1.0000E-10  2.0000E-10  2.0000E-10  2.0000E-10  2.0000E-10  2.0000E-10  1.0000E-10  1.0000E-10   0.000    
  14    0.000      2.0000E-10  5.0000E-10  5.0000E-10  5.0000E-10  5.0000E-10  5.0000E-10  2.0000E-10  1.0000E-10   0.000    
  15    0.000       0.000      8.0000E-10  8.0000E-10  8.0000E-10  8.0000E-10   0.000       0.000       0.000       0.000    

                  ET RATE =  5.000000E-08

 USING ET EXTINCTION DEPTH FROM PREVIOUS STRESS PERIOD. CURRENT PERIOD IS:      18

 USING EXTINCTION WATER CONTENT FROM PREVIOUS STRESS PERIOD. CURRENT PERIOD IS:      18

 USING AIR ENTRY PRESSURE FROM PREVIOUS STRESS PERIOD. CURRENT PERIOD IS:      18

 USING ROOT PRESSURE HEAD FROM PREVIOUS STRESS PERIOD. CURRENT PERIOD IS:      18

 USING ROOT ACTIVITY FROM PREVIOUS STRESS PERIOD. CURRENT PERIOD IS:      18

 PROCESSING AG STRESS PERIOD DATA

 READING AG STRESS PERIOD DATA

 READING IRRIGATION SEGMENT

 READING IRRIGATION WELL

 READING SUPPLEMENTAL WELL

 NO IRRPOND OR REUSING IRRPOND DATA FROM LAST STRESS PERIOD

 END PROCESSING AG STRESS PERIOD DATA OPTIONS
 
 SOLVING FOR HEAD 
                                                   Max.-Head-Change                         Max.-Flux-Residual
  Residual-Control   Outer-Iter.   Inner-Iter.     Column Row Layer    Maximum-Head-Change  Column Row Layer    Maximum-Flux-Residual          L2-NORM 
          0                 1           2             4    7     1       0.7768138388E-02       4    7    1         0.4063015612E+00      0.1201253116E+01
          0                 2           2             4    7     1      -0.1233128053E-01       4    7    1        -0.6622778774E+00      0.1613174199E+01
          0                 3           2             4    7     1       0.1210055431E-01       4    7    1         0.6680069720E+00      0.1635287609E+01
          0                 4           2             4    7     1      -0.4815004058E-03       4    7    1        -0.2732198970E-01      0.6688709308E-01
          0                 5           1             4    7     1       0.5942555960E-05       4    7    1         0.3465714817E-03      0.8488792106E-03

    ------------------------------------------------
       NWT REQUIRED            5 OUTER ITERATIONS 
       AND A TOTAL OF          9 INNER ITERATIONS.
    ------------------------------------------------

 NO OUTPUT CONTROL FOR STRESS PERIOD   18   TIME STEP    1
 
 SOLVING FOR HEAD 
                                                   Max.-Head-Change                         Max.-Flux-Residual
  Residual-Control   Outer-Iter.   Inner-Iter.     Column Row Layer    Maximum-Head-Change  Column Row Layer    Maximum-Flux-Residual          L2-NORM 
          0                 1           2             4    7     1       0.7717089604E-02       4    7    1         0.4036237933E+00      0.1142034019E+01
          0                 2           2             4    7     1      -0.7506640287E-03       4    7    1        -0.4036248058E-01      0.1142022177E+00
          0                 3           2             4    7     1      -0.2289938646E-01       5    6    1        -0.1230471871E+01      0.3027430764E+01
          0                 4           2             4    7     1       0.2388732161E-01       5    6    1         0.1318722471E+01      0.3230163763E+01
          0                 5           2             4    7     1      -0.9507393331E-03       5    8    1        -0.5394999490E-01      0.1321470095E+00
          0                 6           1             4    7     1       0.1173852983E-04       5    8    1         0.6846157839E-03      0.1676923819E-02

    ------------------------------------------------
       NWT REQUIRED            6 OUTER ITERATIONS 
       AND A TOTAL OF         11 INNER ITERATIONS.
    ------------------------------------------------

 NO OUTPUT CONTROL FOR STRESS PERIOD   18   TIME STEP    2
 
 SOLVING FOR HEAD 
                                                   Max.-Head-Change                         Max.-Flux-Residual
  Residual-Control   Outer-Iter.   Inner-Iter.     Column Row Layer    Maximum-Head-Change  Column Row Layer    Maximum-Flux-Residual          L2-NORM 
          0                 1           2             4    7     1       0.7666361309E-02       4    7    1         0.4009623225E+00      0.1136281133E+01
          0                 2           2             4    7     1      -0.7457295343E-03       4    7    1        -0.4009633251E-01      0.1136281711E+00
          0                 3           2             4    7     1      -0.2293591839E-01       5    6    1        -0.1232428552E+01      0.3032262219E+01
          0                 4           2             4    7     1       0.2392501206E-01       5    6    1         0.1320803046E+01      0.3235296523E+01
          0                 5           2             4    7     1      -0.9522366558E-03       5    8    1        -0.5403495704E-01      0.1323570211E+00
          0                 6           1             4    7     1       0.1175428072E-04       5    8    1         0.6855343643E-03      0.1679191359E-02

    ------------------------------------------------
       NWT REQUIRED            6 OUTER ITERATIONS 
       AND A TOTAL OF         11 INNER ITERATIONS.
    ------------------------------------------------

 NO OUTPUT CONTROL FOR STRESS PERIOD   18   TIME STEP    3
 
 SOLVING FOR HEAD 
                                                   Max.-Head-Change                         Max.-Flux-Residual
  Residual-Control   Outer-Iter.   Inner-Iter.     Column Row Layer    Maximum-Head-Change  Column Row Layer    Maximum-Flux-Residual          L2-NORM 
          0                 1           2             4    7     1       0.7616357075E-02       4    7    1         0.3983394497E+00      0.1130993344E+01
          0                 2           2             4    7     1      -0.7408654716E-03       4    7    1        -0.3983404427E-01      0.1130982617E+00
          0                 3           2             4    7     1      -0.2294489098E-01       5    6    1        -0.1232905295E+01      0.3033451014E+01
          0                 4           2             4    7     1       0.2393402049E-01       5    6    1         0.1321300266E+01      0.3236514895E+01
          0                 5           2             4    7     1      -0.9525980025E-03       5    8    1        -0.5405545954E-01      0.1324072609E+00
          0                 6           1             4    7     1       0.1176146475E-04       5    8    1         0.6859533321E-03      0.1680214850E-02

    ------------------------------------------------
       NWT REQUIRED            6 OUTER ITERATIONS 
       AND A TOTAL OF         11 INNER ITERATIONS.
    ------------------------------------------------

 NO OUTPUT CONTROL FOR STRESS PERIOD   18   TIME STEP    4
 
 SOLVING FOR HEAD 
                                                   Max.-Head-Change                         Max.-Flux-Residual
  Residual-Control   Outer-Iter.   Inner-Iter.     Column Row Layer    Maximum-Head-Change  Column Row Layer    Maximum-Flux-Residual          L2-NORM 
          0                 1           2             4    7     1       0.7566661494E-02       4    7    1         0.3957321018E+00      0.1126077494E+01
          0                 2           2             4    7     1      -0.7360314319E-03       4    7    1        -0.3957330849E-01      0.1126038346E+00
          0                 3           2             4    7     1      -0.2295316447E-01       5    6    1        -0.1233344418E+01      0.3034546593E+01
          0                 4           2             4    7     1       0.2394230328E-01       5    6    1         0.1321757421E+01      0.3237635157E+01
          0                 5           2             4    7     1      -0.9529276670E-03       5    8    1        -0.5407416412E-01      0.1324531212E+00
          0                 6           1             4    7     1       0.1176553271E-04       5    8    1         0.6861905426E-03      0.1680796620E-02

    ------------------------------------------------
       NWT REQUIRED            6 OUTER ITERATIONS 
       AND A TOTAL OF         11 INNER ITERATIONS.
    ------------------------------------------------

 NO OUTPUT CONTROL FOR STRESS PERIOD   18   TIME STEP    5
 
 SOLVING FOR HEAD 
                                                   Max.-Head-Change                         Max.-Flux-Residual
  Residual-Control   Outer-Iter.   Inner-Iter.     Column Row Layer    Maximum-Head-Change  Column Row Layer    Maximum-Flux-Residual          L2-NORM 
          0                 1           2             4    7     1       0.7517542398E-02       4    7    1         0.3931554352E+00      0.1121453124E+01
          0                 2           2             4    7     1      -0.7312534700E-03       4    7    1        -0.3931564092E-01      0.1121371121E+00
          0                 3           2             4    7     1      -0.2296081698E-01       5    6    1        -0.1233750273E+01      0.3035559690E+01
          0                 4           2             4    7     1       0.2394994349E-01       5    6    1         0.1322179106E+01      0.3238668472E+01
          0                 5           2             4    7     1      -0.9532317569E-03       5    8    1        -0.5409141741E-01      0.1324953628E+00
          0                 6           1             4    7     1       0.1176928536E-04       5    8    1         0.6864093657E-03      0.1681333694E-02

    ------------------------------------------------
       NWT REQUIRED            6 OUTER ITERATIONS 
       AND A TOTAL OF         11 INNER ITERATIONS.
    ------------------------------------------------

 NO OUTPUT CONTROL FOR STRESS PERIOD   18   TIME STEP    6
 
 SOLVING FOR HEAD 
                                                   Max.-Head-Change                         Max.-Flux-Residual
  Residual-Control   Outer-Iter.   Inner-Iter.     Column Row Layer    Maximum-Head-Change  Column Row Layer    Maximum-Flux-Residual          L2-NORM 
          0                 1           2             4    7     1       0.7468857634E-02       4    7    1         0.3906013195E+00      0.1117054642E+01
          0                 2           2             4    7     1      -0.7265177563E-03       4    7    1        -0.3906022842E-01      0.1116919440E+00
          0                 3           2             4    7     1      -0.2296792271E-01       5    6    1        -0.1234126738E+01      0.3036499807E+01
          0                 4           2             4    7     1       0.2395701743E-01       5    6    1         0.1322569527E+01      0.3239625237E+01
          0                 5           2             4    7     1      -0.9535105066E-03       5    8    1        -0.5410723285E-01      0.1325341168E+00
          0                 6           1             4    7     1       0.1176999935E-04       5    8    1         0.6864509980E-03      0.1681437958E-02

    ------------------------------------------------
       NWT REQUIRED            6 OUTER ITERATIONS 
       AND A TOTAL OF         11 INNER ITERATIONS.
    ------------------------------------------------

 NO OUTPUT CONTROL FOR STRESS PERIOD   18   TIME STEP    7
 
 SOLVING FOR HEAD 
                                                   Max.-Head-Change                         Max.-Flux-Residual
  Residual-Control   Outer-Iter.   Inner-Iter.     Column Row Layer    Maximum-Head-Change  Column Row Layer    Maximum-Flux-Residual          L2-NORM 
          0                 1           2             4    7     1       0.7420600399E-02       4    7    1         0.3880697232E+00      0.1112828778E+01
          0                 2           2             4    7     1      -0.7218236296E-03       4    7    1        -0.3880706790E-01      0.1112628145E+00
          0                 3           2             4    7     1      -0.2297453499E-01       5    6    1        -0.1234476738E+01      0.3037374111E+01
          0                 4           2             4    7     1       0.2396358057E-01       5    6    1         0.1322931751E+01      0.3240516201E+01
          0                 5           2             4    7     1      -0.9537745282E-03       5    8    1        -0.5412221254E-01      0.1325709652E+00
          0                 6           1             4    7     1       0.1177598256E-04       5    8    1         0.6867999323E-03      0.1682293266E-02

    ------------------------------------------------
       NWT REQUIRED            6 OUTER ITERATIONS 
       AND A TOTAL OF         11 INNER ITERATIONS.
    ------------------------------------------------

 NO OUTPUT CONTROL FOR STRESS PERIOD   18   TIME STEP    8
 
 SOLVING FOR HEAD 
                                                   Max.-Head-Change                         Max.-Flux-Residual
  Residual-Control   Outer-Iter.   Inner-Iter.     Column Row Layer    Maximum-Head-Change  Column Row Layer    Maximum-Flux-Residual          L2-NORM 
          0                 1           2             4    7     1       0.7372902780E-02       4    7    1         0.3855676332E+00      0.1108739588E+01
          0                 2           2             4    7     1      -0.7171839389E-03       4    7    1        -0.3855685803E-01      0.1108451620E+00
          0                 3           2             4    7     1      -0.2298071063E-01       5    6    1        -0.1234803374E+01      0.3038190679E+01
          0                 4           2             4    7     1       0.2396969291E-01       5    6    1         0.1323269093E+01      0.3241342933E+01
          0                 5           2             4    7     1      -0.9540178068E-03       5    8    1        -0.5413601515E-01      0.1326047852E+00
          0                 6           1             4    7     1       0.1177898470E-04       5    8    1         0.6869749845E-03      0.1682717982E-02

    ------------------------------------------------
       NWT REQUIRED            6 OUTER ITERATIONS 
       AND A TOTAL OF         11 INNER ITERATIONS.
    ------------------------------------------------

 NO OUTPUT CONTROL FOR STRESS PERIOD   18   TIME STEP    9
 
 SOLVING FOR HEAD 
                                                   Max.-Head-Change                         Max.-Flux-Residual
  Residual-Control   Outer-Iter.   Inner-Iter.     Column Row Layer    Maximum-Head-Change  Column Row Layer    Maximum-Flux-Residual          L2-NORM 
          0                 1           2             4    7     1       0.7325483255E-02       4    7    1         0.3830798796E+00      0.1104755740E+01
          0                 2           2             4    7     1      -0.7125712988E-03       4    7    1        -0.3830808177E-01      0.1104418594E+00
          0                 3           2             4    7     1      -0.2298648929E-01       5    6    1        -0.1235108615E+01      0.3038954112E+01
          0                 4           2             4    7     1       0.2397539387E-01       5    6    1         0.1323583717E+01      0.3242114032E+01
          0                 5           2             4    7     1      -0.9542419101E-03       5    8    1        -0.5414872942E-01      0.1326359395E+00
          0                 6           1             4    7     1       0.1177902447E-04       5    8    1         0.6869772665E-03      0.1682724911E-02

    ------------------------------------------------
       NWT REQUIRED            6 OUTER ITERATIONS 
       AND A TOTAL OF         11 INNER ITERATIONS.
    ------------------------------------------------

 NO OUTPUT CONTROL FOR STRESS PERIOD   18   TIME STEP   10
 
 SOLVING FOR HEAD 
                                                   Max.-Head-Change                         Max.-Flux-Residual
  Residual-Control   Outer-Iter.   Inner-Iter.     Column Row Layer    Maximum-Head-Change  Column Row Layer    Maximum-Flux-Residual          L2-NORM 
          0                 1           2             4    7     1       0.7278620089E-02       4    7    1         0.3806212239E+00      0.1100856519E+01
          0                 2           2             4    7     1      -0.7080127780E-03       4    7    1        -0.3806221534E-01      0.1100444643E+00
          0                 3           2             4    7     1      -0.2299191125E-01       5    6    1        -0.1235394732E+01      0.3039669684E+01
          0                 4           2             4    7     1       0.2398072723E-01       5    6    1         0.1323878049E+01      0.3242835387E+01
          0                 5           2             4    7     1      -0.9544569851E-03       5    8    1        -0.5416093148E-01      0.1326658348E+00
          0                 6           1             4    7     1       0.1178440392E-04       5    8    1         0.6872909769E-03      0.1683494486E-02

    ------------------------------------------------
       NWT REQUIRED            6 OUTER ITERATIONS 
       AND A TOTAL OF         11 INNER ITERATIONS.
    ------------------------------------------------

 NO OUTPUT CONTROL FOR STRESS PERIOD   18   TIME STEP   11
 
 SOLVING FOR HEAD 
                                                   Max.-Head-Change                         Max.-Flux-Residual
  Residual-Control   Outer-Iter.   Inner-Iter.     Column Row Layer    Maximum-Head-Change  Column Row Layer    Maximum-Flux-Residual          L2-NORM 
          0                 1           2             4    7     1       0.7232297543E-02       4    7    1         0.3781914149E+00      0.1097007108E+01
          0                 2           2             4    7     1      -0.7035068448E-03       4    7    1        -0.3781923360E-01      0.1096519559E+00
          0                 3           2             4    7     1      -0.2299700992E-01       5    6    1        -0.1235663574E+01      0.3040342527E+01
          0                 4           2             4    7     1       0.2398572765E-01       5    6    1         0.1324154005E+01      0.3243511761E+01
          0                 5           2             4    7     1      -0.9546532065E-03       5    8    1        -0.5417206390E-01      0.1326931226E+00
          0                 6           1             4    7     1       0.1178409979E-04       5    8    1         0.6872732079E-03      0.1683449662E-02

    ------------------------------------------------
       NWT REQUIRED            6 OUTER ITERATIONS 
       AND A TOTAL OF         11 INNER ITERATIONS.
    ------------------------------------------------

 NO OUTPUT CONTROL FOR STRESS PERIOD   18   TIME STEP   12
 
 SOLVING FOR HEAD 
                                                   Max.-Head-Change                         Max.-Flux-Residual
  Residual-Control   Outer-Iter.   Inner-Iter.     Column Row Layer    Maximum-Head-Change  Column Row Layer    Maximum-Flux-Residual          L2-NORM 
          0                 1           2             4    7     1       0.7186370713E-02       4    7    1         0.3757822965E+00      0.1093198920E+01
          0                 2           2             4    7     1      -0.6990394042E-03       4    7    1        -0.3757832094E-01      0.1092638303E+00
          0                 3           2             4    7     1      -0.2300181291E-01       5    6    1        -0.1235916515E+01      0.3040975748E+01
          0                 4           2             4    7     1       0.2399042291E-01       5    6    1         0.1324413112E+01      0.3244146858E+01
          0                 5           2             4    7     1      -0.9548428848E-03       5    8    1        -0.5418282485E-01      0.1327195025E+00
          0                 6           1             4    7     1       0.1178916582E-04       5    8    1         0.6875686365E-03      0.1684175958E-02

    ------------------------------------------------
       NWT REQUIRED            6 OUTER ITERATIONS 
       AND A TOTAL OF         11 INNER ITERATIONS.
    ------------------------------------------------

 NO OUTPUT CONTROL FOR STRESS PERIOD   18   TIME STEP   13
 
 SOLVING FOR HEAD 
                                                   Max.-Head-Change                         Max.-Flux-Residual
  Residual-Control   Outer-Iter.   Inner-Iter.     Column Row Layer    Maximum-Head-Change  Column Row Layer    Maximum-Flux-Residual          L2-NORM 
          0                 1           2             4    7     1       0.7140839323E-02       4    7    1         0.3733936955E+00      0.1089420090E+01
          0                 2           2             4    7     1      -0.6946104296E-03       4    7    1        -0.3733946004E-01      0.1088782324E+00
          0                 3           2             4    7     1      -0.2300635131E-01       5    6    1        -0.1236155287E+01      0.3041573757E+01
          0                 4           2             4    7     1       0.2399484538E-01       5    6    1         0.1324657160E+01      0.3244745049E+01
          0                 5           2             4    7     1      -0.9550189044E-03       5    8    1        -0.5419281060E-01      0.1327439679E+00
          0                 6           1             4    7     1       0.1179133781E-04       5    8    1         0.6876952793E-03      0.1684484525E-02

    ------------------------------------------------
       NWT REQUIRED            6 OUTER ITERATIONS 
       AND A TOTAL OF         11 INNER ITERATIONS.
    ------------------------------------------------

 NO OUTPUT CONTROL FOR STRESS PERIOD   18   TIME STEP   14
 
 SOLVING FOR HEAD 
                                                   Max.-Head-Change                         Max.-Flux-Residual
  Residual-Control   Outer-Iter.   Inner-Iter.     Column Row Layer    Maximum-Head-Change  Column Row Layer    Maximum-Flux-Residual          L2-NORM 
          0                 1           2             4    7     1       0.7095697894E-02       4    7    1         0.3710255974E+00      0.1085658290E+01
          0                 2           2             4    7     1      -0.6902193873E-03       4    7    1        -0.3710264942E-01      0.1084945453E+00
          0                 3           2             4    7     1      -0.2301064291E-01       5    6    1        -0.1236380788E+01      0.3042138743E+01
          0                 4           2             4    7     1       0.2399901353E-01       5    6    1         0.1324887167E+01      0.3245308842E+01
          0                 5           2             4    7     1      -0.9551848014E-03       5    8    1        -0.5420222202E-01      0.1327670318E+00
          0                 6           1             4    7     1       0.1179338468E-04       5    8    1         0.6878146321E-03      0.1684778082E-02

    ------------------------------------------------
       NWT REQUIRED            6 OUTER ITERATIONS 
       AND A TOTAL OF         11 INNER ITERATIONS.
    ------------------------------------------------

 NO OUTPUT CONTROL FOR STRESS PERIOD   18   TIME STEP   15
 
 SOLVING FOR HEAD 
                                                   Max.-Head-Change                         Max.-Flux-Residual
  Residual-Control   Outer-Iter.   Inner-Iter.     Column Row Layer    Maximum-Head-Change  Column Row Layer    Maximum-Flux-Residual          L2-NORM 
          0                 1           2             4    7     1       0.7051078622E-02       4    7    1         0.3686850586E+00      0.1081905954E+01
          0                 2           2             4    7     1      -0.6858791370E-03       4    7    1        -0.3686859474E-01      0.1081117581E+00
          0                 3           2             4    7     1      -0.2301471123E-01       5    6    1        -0.1236594389E+01      0.3042674323E+01
          0                 4           2             4    7     1       0.2400295273E-01       5    6    1         0.1325104538E+01      0.3245841700E+01
          0                 5           2             4    7     1      -0.9553415864E-03       5    8    1        -0.5421111650E-01      0.1327888364E+00
          0                 6           1             4    7     1       0.1179531942E-04       5    8    1         0.6879274395E-03      0.1685052818E-02

    ------------------------------------------------
       NWT REQUIRED            6 OUTER ITERATIONS 
       AND A TOTAL OF         11 INNER ITERATIONS.
    ------------------------------------------------

 NO OUTPUT CONTROL FOR STRESS PERIOD   18   TIME STEP   16
 
 SOLVING FOR HEAD 
                                                   Max.-Head-Change                         Max.-Flux-Residual
  Residual-Control   Outer-Iter.   Inner-Iter.     Column Row Layer    Maximum-Head-Change  Column Row Layer    Maximum-Flux-Residual          L2-NORM 
          0                 1           2             4    7     1       0.7006836478E-02       4    7    1         0.3663642527E+00      0.1078159830E+01
          0                 2           2             4    7     1      -0.6815755716E-03       4    7    1        -0.3663651340E-01      0.1077669445E+00
          0                 3           2             4    7     1      -0.2301857279E-01       5    6    1        -0.1236796869E+01      0.3043160554E+01
          0                 4           2             4    7     1       0.2400667922E-01       5    6    1         0.1325310164E+01      0.3246345672E+01
          0                 5           2             4    7     1      -0.9554899047E-03       5    8    1        -0.5421953042E-01      0.1328094356E+00
          0                 6           1             4    7     1       0.1179714942E-04       5    8    1         0.6880341605E-03      0.1685317984E-02

    ------------------------------------------------
       NWT REQUIRED            6 OUTER ITERATIONS 
       AND A TOTAL OF         11 INNER ITERATIONS.
    ------------------------------------------------

 NO OUTPUT CONTROL FOR STRESS PERIOD   18   TIME STEP   17
 
 SOLVING FOR HEAD 
                                                   Max.-Head-Change                         Max.-Flux-Residual
  Residual-Control   Outer-Iter.   Inner-Iter.     Column Row Layer    Maximum-Head-Change  Column Row Layer    Maximum-Flux-Residual          L2-NORM 
          0                 1           2             4    7     1       0.6962966325E-02       4    7    1         0.3640630004E+00      0.1074417414E+01
          0                 2           2             4    7     1      -0.6773081906E-03       4    7    1        -0.3640638739E-01      0.1073489252E+00
          0                 3           2             4    7     1      -0.2302224317E-01       5    6    1        -0.1236989124E+01      0.3043664516E+01
          0                 4           2             4    7     1       0.2401020916E-01       5    6    1         0.1325504941E+01      0.3246823274E+01
          0                 5           2             4    7     1      -0.9556304004E-03       5    8    1        -0.5422750032E-01      0.1328289862E+00
          0                 6           1             4    7     1       0.1179888298E-04       5    8    1         0.6881352290E-03      0.1685565925E-02

    ------------------------------------------------
       NWT REQUIRED            6 OUTER ITERATIONS 
       AND A TOTAL OF         11 INNER ITERATIONS.
    ------------------------------------------------

 NO OUTPUT CONTROL FOR STRESS PERIOD   18   TIME STEP   18
 
 SOLVING FOR HEAD 
                                                   Max.-Head-Change                         Max.-Flux-Residual
  Residual-Control   Outer-Iter.   Inner-Iter.     Column Row Layer    Maximum-Head-Change  Column Row Layer    Maximum-Flux-Residual          L2-NORM 
          0                 1           2             4    7     1       0.6919602378E-02       4    7    1         0.3617883758E+00      0.1070670092E+01
          0                 2           2             4    7     1      -0.6730900501E-03       4    7    1        -0.3617892420E-01      0.1069675978E+00
          0                 3           2             4    7     1      -0.2302573922E-01       5    6    1        -0.1237172052E+01      0.3044123436E+01
          0                 4           2             4    7     1       0.2401356099E-01       5    6    1         0.1325689886E+01      0.3247276685E+01
          0                 5           2             4    7     1      -0.9557638077E-03       5    8    1        -0.5423506812E-01      0.1328475447E+00
          0                 6           1             4    7     1       0.1180052972E-04       5    8    1         0.6882311980E-03      0.1685799865E-02

    ------------------------------------------------
       NWT REQUIRED            6 OUTER ITERATIONS 
       AND A TOTAL OF         11 INNER ITERATIONS.
    ------------------------------------------------

 NO OUTPUT CONTROL FOR STRESS PERIOD   18   TIME STEP   19
 
 SOLVING FOR HEAD 
                                                   Max.-Head-Change                         Max.-Flux-Residual
  Residual-Control   Outer-Iter.   Inner-Iter.     Column Row Layer    Maximum-Head-Change  Column Row Layer    Maximum-Flux-Residual          L2-NORM 
          0                 1           2             4    7     1       0.6876602394E-02       4    7    1         0.3595326568E+00      0.1066925642E+01
          0                 2           2             4    7     1      -0.6689073131E-03       4    7    1        -0.3595335157E-01      0.1065867248E+00
          0                 3           2             4    7     1      -0.2302907078E-01       5    6    1        -0.1237346133E+01      0.3044560661E+01
          0                 4           2             4    7     1       0.2401674401E-01       5    6    1         0.1325865509E+01      0.3247707263E+01
          0                 5           2             4    7     1      -0.9558904950E-03       5    8    1        -0.5424225456E-01      0.1328651515E+00
          0                 6           1             4    7     1       0.1180209257E-04       5    8    1         0.6883223502E-03      0.1686022767E-02

    ------------------------------------------------
       NWT REQUIRED            6 OUTER ITERATIONS 
       AND A TOTAL OF         11 INNER ITERATIONS.
    ------------------------------------------------

 NO OUTPUT CONTROL FOR STRESS PERIOD   18   TIME STEP   20
 
 SOLVING FOR HEAD 
                                                   Max.-Head-Change                         Max.-Flux-Residual
  Residual-Control   Outer-Iter.   Inner-Iter.     Column Row Layer    Maximum-Head-Change  Column Row Layer    Maximum-Flux-Residual          L2-NORM 
          0                 1           2             4    7     1       0.6833961550E-02       4    7    1         0.3572958087E+00      0.1063174767E+01
          0                 2           2             4    7     1      -0.6647592345E-03       4    7    1        -0.3572965119E-01      0.1062055023E+00
          0                 3           2             4    7     1      -0.2303225593E-01       5    6    1        -0.1237512398E+01      0.3044978230E+01
          0                 4           2             4    7     1       0.2401977673E-01       5    6    1         0.1326032837E+01      0.3248117511E+01
          0                 5           2             4    7     1      -0.9560112009E-03       5    8    1        -0.5424910155E-01      0.1328819421E+00
          0                 6           1             4    7     1       0.1180358238E-04       5    8    1         0.6884091904E-03      0.1686239100E-02

    ------------------------------------------------
       NWT REQUIRED            6 OUTER ITERATIONS 
       AND A TOTAL OF         11 INNER ITERATIONS.
    ------------------------------------------------

 NO OUTPUT CONTROL FOR STRESS PERIOD   18   TIME STEP   21
 
 SOLVING FOR HEAD 
                                                   Max.-Head-Change                         Max.-Flux-Residual
  Residual-Control   Outer-Iter.   Inner-Iter.     Column Row Layer    Maximum-Head-Change  Column Row Layer    Maximum-Flux-Residual          L2-NORM 
          0                 1           2             4    7     1       0.6791811088E-02       4    7    1         0.3550849226E+00      0.1059425762E+01
          0                 2           2             4    7     1      -0.6606594100E-03       4    7    1        -0.3550857673E-01      0.1058245811E+00
          0                 3           2             4    7     1      -0.2303529512E-01       5    6    1        -0.1237670920E+01      0.3045376402E+01
          0                 4           2             4    7     1       0.2402266133E-01       5    6    1         0.1326191993E+01      0.3248507742E+01
          0                 5           2             4    7     1      -0.9561260117E-03       5    8    1        -0.5425561407E-01      0.1328979089E+00
          0                 6           1             4    7     1       0.1180499882E-04       5    8    1         0.6884917593E-03      0.1686431876E-02

    ------------------------------------------------
       NWT REQUIRED            6 OUTER ITERATIONS 
       AND A TOTAL OF         11 INNER ITERATIONS.
    ------------------------------------------------

 NO OUTPUT CONTROL FOR STRESS PERIOD   18   TIME STEP   22
 
 SOLVING FOR HEAD 
                                                   Max.-Head-Change                         Max.-Flux-Residual
  Residual-Control   Outer-Iter.   Inner-Iter.     Column Row Layer    Maximum-Head-Change  Column Row Layer    Maximum-Flux-Residual          L2-NORM 
          0                 1           2             4    7     1       0.6750008653E-02       4    7    1         0.3528921211E+00      0.1055674476E+01
          0                 2           2             4    7     1      -0.6565928861E-03       4    7    1        -0.3528928103E-01      0.1054436062E+00
          0                 3           2             4    7     1      -0.2303821047E-01       5    6    1        -0.1237822719E+01      0.3045758034E+01
          0                 4           2             4    7     1       0.2402541877E-01       5    6    1         0.1326344122E+01      0.3248880761E+01
          0                 5           2             4    7     1      -0.9562357610E-03       5    8    1        -0.5426183943E-01      0.1329131664E+00
          0                 6           1             4    7     1       0.1180635354E-04       5    8    1         0.6885707187E-03      0.1686632954E-02

    ------------------------------------------------
       NWT REQUIRED            6 OUTER ITERATIONS 
       AND A TOTAL OF         11 INNER ITERATIONS.
    ------------------------------------------------

 NO OUTPUT CONTROL FOR STRESS PERIOD   18   TIME STEP   23
 
 SOLVING FOR HEAD 
                                                   Max.-Head-Change                         Max.-Flux-Residual
  Residual-Control   Outer-Iter.   Inner-Iter.     Column Row Layer    Maximum-Head-Change  Column Row Layer    Maximum-Flux-Residual          L2-NORM 
          0                 1           2             4    7     1       0.6708682447E-02       4    7    1         0.3507247056E+00      0.1051914430E+01
          0                 2           2             4    7     1      -0.6525732397E-03       4    7    1        -0.3507255365E-01      0.1050622811E+00
          0                 3           2             4    7     1      -0.2304099772E-01       5    6    1        -0.1237967794E+01      0.3046122804E+01
          0                 4           2             4    7     1       0.2402804659E-01       5    6    1         0.1326489104E+01      0.3249236263E+01
          0                 5           2             4    7     1      -0.9563403511E-03       5    8    1        -0.5426777203E-01      0.1329277084E+00
          0                 6           1             4    7     1       0.1180764385E-04       5    8    1         0.6886459787E-03      0.1686825915E-02

    ------------------------------------------------
       NWT REQUIRED            6 OUTER ITERATIONS 
       AND A TOTAL OF         11 INNER ITERATIONS.
    ------------------------------------------------

 NO OUTPUT CONTROL FOR STRESS PERIOD   18   TIME STEP   24
 
 SOLVING FOR HEAD 
                                                   Max.-Head-Change                         Max.-Flux-Residual
  Residual-Control   Outer-Iter.   Inner-Iter.     Column Row Layer    Maximum-Head-Change  Column Row Layer    Maximum-Flux-Residual          L2-NORM 
          0                 1           2             4    7     1       0.6667690843E-02       4    7    1         0.3485746408E+00      0.1048160154E+01
          0                 2           2             4    7     1      -0.6485858644E-03       4    7    1        -0.3485754650E-01      0.1046814099E+00
          0                 3           2             4    7     1      -0.2304367424E-01       5    6    1        -0.1238106850E+01      0.3046472824E+01
          0                 4           2             4    7     1       0.2403056108E-01       5    6    1         0.1326627824E+01      0.3249576432E+01
          0                 5           2             4    7     1      -0.9564404311E-03       5    8    1        -0.5427344859E-01      0.1329416250E+00
          0                 6           1             4    7     1       0.1180887894E-04       5    8    1         0.6887179732E-03      0.1686994159E-02

    ------------------------------------------------
       NWT REQUIRED            6 OUTER ITERATIONS 
       AND A TOTAL OF         11 INNER ITERATIONS.
    ------------------------------------------------

 NO OUTPUT CONTROL FOR STRESS PERIOD   18   TIME STEP   25
 
 SOLVING FOR HEAD 
                                                   Max.-Head-Change                         Max.-Flux-Residual
  Residual-Control   Outer-Iter.   Inner-Iter.     Column Row Layer    Maximum-Head-Change  Column Row Layer    Maximum-Flux-Residual          L2-NORM 
          0                 1           2             4    7     1       0.6627031523E-02       4    7    1         0.3464419245E+00      0.1044404906E+01
          0                 2           2             4    7     1      -0.6446302582E-03       4    7    1        -0.3464424451E-01      0.1043007322E+00
          0                 3           2             4    7     1      -0.2304624702E-01       5    6    1        -0.1238240385E+01      0.3046808907E+01
          0                 4           2             4    7     1       0.2403296921E-01       5    6    1         0.1326760673E+01      0.3249902233E+01
          0                 5           2             4    7     1      -0.9565362770E-03       5    8    1        -0.5427888497E-01      0.1329549614E+00
          0                 6           1             4    7     1       0.1181006149E-04       5    8    1         0.6887869090E-03      0.1687159546E-02

    ------------------------------------------------
       NWT REQUIRED            6 OUTER ITERATIONS 
       AND A TOTAL OF         11 INNER ITERATIONS.
    ------------------------------------------------

 NO OUTPUT CONTROL FOR STRESS PERIOD   18   TIME STEP   26
 
 SOLVING FOR HEAD 
                                                   Max.-Head-Change                         Max.-Flux-Residual
  Residual-Control   Outer-Iter.   Inner-Iter.     Column Row Layer    Maximum-Head-Change  Column Row Layer    Maximum-Flux-Residual          L2-NORM 
          0                 1           2             4    7     1       0.6586838103E-02       4    7    1         0.3443337783E+00      0.1040649195E+01
          0                 2           2             4    7     1      -0.6407210778E-03       4    7    1        -0.3443345894E-01      0.1039200364E+00
          0                 3           2             4    7     1      -0.2304871780E-01       5    6    1        -0.1238368540E+01      0.3047131579E+01
          0                 4           2             4    7     1       0.2403527541E-01       5    6    1         0.1326887901E+01      0.3250214219E+01
          0                 5           2             4    7     1      -0.9566252654E-03       5    8    1        -0.5428393239E-01      0.1329673182E+00
          0                 6           1             4    7     1       0.1180843412E-04       5    8    1         0.6886919559E-03      0.1686927482E-02

    ------------------------------------------------
       NWT REQUIRED            6 OUTER ITERATIONS 
       AND A TOTAL OF         11 INNER ITERATIONS.
    ------------------------------------------------

 NO OUTPUT CONTROL FOR STRESS PERIOD   18   TIME STEP   27
 
 SOLVING FOR HEAD 
                                                   Max.-Head-Change                         Max.-Flux-Residual
  Residual-Control   Outer-Iter.   Inner-Iter.     Column Row Layer    Maximum-Head-Change  Column Row Layer    Maximum-Flux-Residual          L2-NORM 
          0                 1           2             4    7     1       0.6546965130E-02       4    7    1         0.3422424469E+00      0.1036896558E+01
          0                 2           2             4    7     1      -0.6368425155E-03       4    7    1        -0.3422432517E-01      0.1035359538E+00
          0                 3           2             4    7     1      -0.2305109379E-01       5    6    1        -0.1238491591E+01      0.3047443418E+01
          0                 4           2             4    7     1       0.2403748448E-01       5    6    1         0.1327009765E+01      0.3250513097E+01
          0                 5           2             4    7     1      -0.9567159904E-03       5    8    1        -0.5428907808E-01      0.1329799420E+00
          0                 6           1             4    7     1       0.1181227884E-04       5    8    1         0.6889161812E-03      0.1687478927E-02

    ------------------------------------------------
       NWT REQUIRED            6 OUTER ITERATIONS 
       AND A TOTAL OF         11 INNER ITERATIONS.
    ------------------------------------------------

 NO OUTPUT CONTROL FOR STRESS PERIOD   18   TIME STEP   28
 
 SOLVING FOR HEAD 
                                                   Max.-Head-Change                         Max.-Flux-Residual
  Residual-Control   Outer-Iter.   Inner-Iter.     Column Row Layer    Maximum-Head-Change  Column Row Layer    Maximum-Flux-Residual          L2-NORM 
          0                 1           2             4    7     1       0.6507410365E-02       4    7    1         0.3401677302E+00      0.1033152598E+01
          0                 2           2             4    7     1      -0.6329949064E-03       4    7    1        -0.3401685288E-01      0.1031616914E+00
          0                 3           2             4    7     1      -0.2305338551E-01       5    6    1        -0.1238610107E+01      0.3047740059E+01
          0                 4           2             4    7     1       0.2403960795E-01       5    6    1         0.1327126900E+01      0.3250800374E+01
          0                 5           2             4    7     1      -0.9568005065E-03       5    8    1        -0.5429387152E-01      0.1329916996E+00
          0                 6           1             4    7     1       0.1181332171E-04       5    8    1         0.6889769652E-03      0.1687632292E-02

    ------------------------------------------------
       NWT REQUIRED            6 OUTER ITERATIONS 
       AND A TOTAL OF         11 INNER ITERATIONS.
    ------------------------------------------------

 NO OUTPUT CONTROL FOR STRESS PERIOD   18   TIME STEP   29
 
 SOLVING FOR HEAD 
                                                   Max.-Head-Change                         Max.-Flux-Residual
  Residual-Control   Outer-Iter.   Inner-Iter.     Column Row Layer    Maximum-Head-Change  Column Row Layer    Maximum-Flux-Residual          L2-NORM 
          0                 1           2             4    7     1       0.6468307205E-02       4    7    1         0.3381168539E+00      0.1029411163E+01
          0                 2           2             4    7     1      -0.6291909493E-03       4    7    1        -0.3381174978E-01      0.1027831997E+00
          0                 3           2             4    7     1      -0.2305559235E-01       5    6    1        -0.1238724107E+01      0.3048027428E+01
          0                 4           2             4    7     1       0.2404164576E-01       5    6    1         0.1327239309E+01      0.3251076072E+01
          0                 5           2             4    7     1      -0.9568816145E-03       5    8    1        -0.5429847174E-01      0.1330029716E+00
          0                 6           1             4    7     1       0.1181296012E-04       5    8    1         0.6889558445E-03      0.1687576372E-02

    ------------------------------------------------
       NWT REQUIRED            6 OUTER ITERATIONS 
       AND A TOTAL OF         11 INNER ITERATIONS.
    ------------------------------------------------

 NO OUTPUT CONTROL FOR STRESS PERIOD   18   TIME STEP   30



 STREAM LISTING     PERIOD     18   STEP       30

 LAYER ROW COL. STREAM  RCH.  FLOW INTO     FLOW TO   FLOW OUT OF   OVRLND.     DIRECT     STREAM       STREAM     STREAM     STREAM   STREAMBED  STREAMBED
                SEG.NO.  NO.  STRM. RCH.    AQUIFER    STRM. RCH.    RUNOFF     PRECIP       ET          HEAD       DEPTH      WIDTH   CONDCTNC.   GRADIENT

   1    1    1     1     1    2.3625E+01  2.3872E-01   2.3387E+01  0.000E+00  0.000E+00  0.000E+00  1.09421E+03  1.157E+00  1.276E+01  5.742E-02  1.386E+00
   1    2    2     1     2    2.3387E+01  3.6909E-01   2.3018E+01  0.000E+00  0.000E+00  0.000E+00  1.08921E+03  1.153E+00  1.270E+01  8.888E-02  1.384E+00
   1    3    3     1     3    2.3018E+01  3.1418E-01   2.2703E+01  0.000E+00  0.000E+00  0.000E+00  1.08357E+03  1.147E+00  1.263E+01  7.575E-02  1.382E+00
   1    3    4     1     4    2.2703E+01  2.8882E-01   2.2415E+01  0.000E+00  0.000E+00  0.000E+00  1.07855E+03  1.143E+00  1.256E+01  6.972E-02  1.381E+00
   1    4    5     2     1    2.0415E+01  3.1702E-01   2.0098E+01  0.000E+00  0.000E+00  0.000E+00  1.07300E+03  1.064E+00  1.200E+01  7.800E-02  1.355E+00
   1    5    6     2     2    2.0098E+01  2.4333E-01   1.9854E+01  0.000E+00  0.000E+00  0.000E+00  1.06756E+03  1.055E+00  1.200E+01  6.000E-02  1.352E+00
   1    6    6     2     3    1.9854E+01  2.4286E-01   1.9611E+01  0.000E+00  0.000E+00  0.000E+00  1.06284E+03  1.048E+00  1.200E+01  6.000E-02  1.349E+00
   1    7    6     2     4    1.9611E+01  2.4240E-01   1.9369E+01  0.000E+00  0.000E+00  0.000E+00  1.05812E+03  1.040E+00  1.200E+01  6.000E-02  1.347E+00
   1    8    6     2     5    1.9369E+01  2.4193E-01   1.9127E+01  0.000E+00  0.000E+00  0.000E+00  1.05339E+03  1.032E+00  1.200E+01  6.000E-02  1.344E+00
   1    3    5     3     1    2.0000E+00  2.8252E-01   1.7175E+00  0.000E+00  0.000E+00  0.000E+00  1.07555E+03  1.909E+00  9.636E+00  7.227E-02  1.955E+00
   1    3    6     3     2    1.7175E+00  2.4905E-01   1.4684E+00  0.000E+00  0.000E+00  0.000E+00  1.07264E+03  1.727E+00  8.909E+00  6.682E-02  1.864E+00
   1    3    7     3     3    1.4684E+00  1.9718E-01   1.2712E+00  0.000E+00  0.000E+00  0.000E+00  1.06987E+03  1.555E+00  8.218E+00  5.547E-02  1.777E+00
   1    4    8     3     4    1.2712E+00  2.2567E-01   1.0456E+00  0.000E+00  0.000E+00  0.000E+00  1.06682E+03  1.364E+00  7.455E+00  6.709E-02  1.682E+00
   1    5    8     3     5    1.0456E+00  1.5790E-01   8.8768E-01  0.000E+00  0.000E+00  0.000E+00  1.06362E+03  1.164E+00  6.655E+00  4.991E-02  1.582E+00
   1    6    8     3     6    8.8768E-01  5.5980E-02   8.3170E-01  0.000E+00  0.000E+00  0.000E+00  1.06158E+03  1.036E+00  6.145E+00  1.844E-02  1.518E+00
   1    5   10     4     1    1.0000E+01  9.0919E-02   9.9091E+00  0.000E+00  0.000E+00  0.000E+00  1.07836E+03  6.368E-01  1.000E+01  2.500E-02  1.212E+00
   1    5    9     4     2    9.9091E+00  1.8158E-01   9.7275E+00  0.000E+00  0.000E+00  0.000E+00  1.07154E+03  6.315E-01  1.000E+01  5.000E-02  1.211E+00
   1    6    8     4     3    9.7275E+00  1.2689E-01   9.6006E+00  0.000E+00  0.000E+00  0.000E+00  1.06381E+03  6.256E-01  1.000E+01  3.500E-02  1.209E+00
   1    6    8     5     1    1.0432E+01  2.2686E-01   1.0205E+01  0.000E+00  0.000E+00  0.000E+00  1.05868E+03  6.790E-01  1.542E+01  6.166E-02  1.226E+00
   1    7    7     5     2    1.0205E+01  2.7894E-01   9.9265E+00  0.000E+00  0.000E+00  0.000E+00  1.05417E+03  6.732E-01  1.519E+01  7.594E-02  1.224E+00
   1    8    7     5     3    9.9265E+00  1.9221E-01   9.7343E+00  0.000E+00  0.000E+00  0.000E+00  1.04992E+03  6.676E-01  1.497E+01  5.241E-02  1.223E+00
   1    8    6     5     4    9.7343E+00  1.3577E-01   9.5985E+00  0.000E+00  0.000E+00  0.000E+00  1.04691E+03  6.637E-01  1.482E+01  3.706E-02  1.221E+00
   1    9    6     6     1    2.1282E+01  2.4629E-01   2.1036E+01  0.000E+00  0.000E+00  0.000E+00  1.04383E+03  1.105E+00  1.200E+01  6.000E-02  1.368E+00
   1   10    7     6     2    2.1036E+01  2.4582E-01   2.0790E+01  0.000E+00  0.000E+00  0.000E+00  1.03928E+03  1.097E+00  1.200E+01  6.000E-02  1.366E+00
   1   11    7     6     3    2.0790E+01  2.4536E-01   2.0545E+01  0.000E+00  0.000E+00  0.000E+00  1.03473E+03  1.089E+00  1.200E+01  6.000E-02  1.363E+00
   1   12    7     6     4    2.0545E+01  2.4489E-01   2.0300E+01  0.000E+00  0.000E+00  0.000E+00  1.03017E+03  1.082E+00  1.200E+01  6.000E-02  1.361E+00
   1   13    7     6     5    2.0300E+01  6.1897E-03   2.0294E+01  0.000E+00  0.000E+00  0.000E+00  1.02699E+03  1.078E+00  1.200E+01  2.400E-02  8.597E-02
   1   14    9     7     1    1.5000E+02  1.3725E+00   1.4863E+02  0.000E+00  0.000E+00  0.000E+00  1.03987E+03  2.288E+00  5.529E+01  5.593E-01  8.180E-01
   1   13    8     7     2    1.4863E+02  1.9449E+00   1.4668E+02  0.000E+00  0.000E+00  0.000E+00  1.03478E+03  2.279E+00  5.525E+01  6.147E-01  1.055E+00
   1   13    7     7     3    1.4668E+02  1.6527E+00   1.4503E+02  0.000E+00  0.000E+00  0.000E+00  1.02969E+03  2.269E+00  5.521E+01  5.584E-01  9.866E-01
   1   13    6     8     1    1.6532E+02  1.0714E+00   1.6425E+02  0.000E+00  0.000E+00  0.000E+00  1.02479E+03  2.918E+00  4.231E+01  4.312E-01  8.283E-01
   1   13    5     8     2    1.6425E+02  3.1576E-01   1.6394E+02  0.000E+00  0.000E+00  0.000E+00  1.01854E+03  2.913E+00  4.224E+01  4.305E-01  2.445E-01
   1   13    4     8     3    1.6394E+02 -1.9660E+00   1.6590E+02  0.000E+00  0.000E+00  0.000E+00  1.01229E+03  2.919E+00  4.232E+01  4.313E+00 -1.519E-01
   1   13    3     8     4    1.6590E+02 -3.4268E+00   1.6933E+02  0.000E+00  0.000E+00  0.000E+00  1.00606E+03  2.937E+00  4.258E+01  4.339E+00 -2.632E-01
   1   13    2     8     5    1.6933E+02 -2.5388E+00   1.7187E+02  0.000E+00  0.000E+00  0.000E+00  9.99831E+02  2.956E+00  4.286E+01  4.368E+00 -1.937E-01
   1   13    1     8     6    1.7187E+02 -1.9905E+00   1.7386E+02  0.000E+00  0.000E+00  0.000E+00  9.94846E+02  2.971E+00  4.308E+01  2.634E+00 -2.519E-01
   1    8    6     9     1    7.4431E+00  0.0000E+00   7.4431E+00  0.000E+00  0.000E+00  0.000E+00  1.08065E+03  1.898E+00  4.000E+00  0.000E+00  1.633E+00
   1    8    5     9     2    7.4431E+00  0.0000E+00   7.4431E+00  0.000E+00  0.000E+00  0.000E+00  1.08015E+03  1.898E+00  4.000E+00  0.000E+00  1.633E+00





UNSATURATED ZONE PACKAGE VOLUMETRIC BUDGET FOR  TIME STEP    30 STRESS PERIOD   18
  ------------------------------------------------------------------------------



     CUMULATIVE VOLUMES      L**3       RATES FOR THIS TIME STEP      L**3/T
     ------------------                 ------------------------

           IN:                                      IN:
           ---                                      ---
        INFILTRATION =   692799081.1025          INFILTRATION =           8.2908

          OUT:                                     OUT:
          ----                                     ----
              UZF ET =   470594814.2764                UZF ET =           8.3175
        UZF RECHARGE =       73224.0000          UZF RECHARGE =       0.0000E+00

            IN - OUT =   222131042.8261              IN - OUT =      -2.6749E-02

          STORAGE:                                 STORAGE:
          --------                                 --------
      STORAGE CHANGE =   222131250.9740        STORAGE CHANGE =      -2.6749E-02

 PERCENT DISCREPANCY IS DIFFERENCE BETWEEN IN-OUT MINUS CHANGE IN STORAGE
 DIVIDED BY THE AVERAGE OF IN AND OUT TIMES 100

 PERCENT DISCREPANCY =          -0.00     PERCENT DISCREPANCY =           0.00






1
  VOLUMETRIC BUDGET FOR AGRICULTURAL FIELDS AT  END OF TIME STEP   30, STRESS PERIOD  18
  ------------------------------------------------------------------------------

     CUMULATIVE VOLUMES      L**3       RATES FOR THIS TIME STEP      L**3/T
     ------------------                 ------------------------

           IN:                                      IN:
           ---                                      ---
               AG WELLS  =   405755808.0000                 AG WELLS  =       4.7684E-07
      DIVERSION SEGMENTS =   249136288.0000        DIVERSION SEGMENTS =           7.4431
       IRRIGATION PONDS  =           0.0000         IRRIGATION PONDS  =           0.0000
           GW IRRIGATION =           0.0000             GW IRRIGATION =           0.0000
           SW IRRIGATION =           0.0000             SW IRRIGATION =           0.0000
        SYSTEM LOSSES GW =           0.0000          SYSTEM LOSSES GW =           0.0000
        SYSTEM LOSSES SW =           0.0000          SYSTEM LOSSES SW =           0.0000

                TOTAL IN =   654892096.0000                  TOTAL IN =           7.4431

          OUT:                                     OUT:
          ----                                     ----
               AG WELLS  =           0.0000                 AG WELLS  =           0.0000
      DIVERSION SEGMENTS =           0.0000        DIVERSION SEGMENTS =           0.0000
       IRRIGATION PONDS  =           0.0000         IRRIGATION PONDS  =           0.0000
           GW IRRIGATION =   405755808.0000             GW IRRIGATION =       4.7684E-07
           SW IRRIGATION =   249141184.0000             SW IRRIGATION =           7.4433
        SYSTEM LOSSES GW =           0.0000          SYSTEM LOSSES GW =           0.0000
        SYSTEM LOSSES SW =           0.0000          SYSTEM LOSSES SW =           0.0000

               TOTAL OUT =   654897024.0000                 TOTAL OUT =           7.4433

                IN - OUT =       -4928.0000                  IN - OUT =      -1.4830E-04

     PERCENT DISCREPANCY =          -0.00         PERCENT DISCREPANCY =          -0.00



1
  VOLUMETRIC BUDGET FOR ENTIRE MODEL AT END OF TIME STEP   30, STRESS PERIOD  18
  ------------------------------------------------------------------------------

     CUMULATIVE VOLUMES      L**3       RATES FOR THIS TIME STEP      L**3/T
     ------------------                 ------------------------

           IN:                                      IN:
           ---                                      ---
             STORAGE     =   678213184.0000               STORAGE     =           2.3747
       CONSTANT HEAD     =           0.0000         CONSTANT HEAD     =           0.0000
     HEAD DEP BOUNDS     =    12901250.0000       HEAD DEP BOUNDS     =           0.2883
      STREAM LEAKAGE     =   528892768.0000        STREAM LEAKAGE     =          12.2457
        UZF RECHARGE     =       73223.9531          UZF RECHARGE     =           0.0000
               GW ET     =           0.0000                 GW ET     =           0.0000
     SURFACE LEAKAGE     =           0.0000       SURFACE LEAKAGE     =           0.0000
           AG WELLS      =           0.0000             AG WELLS      =           0.0000

                TOTAL IN =  1220080384.0000                  TOTAL IN =          14.9086

          OUT:                                     OUT:
          ----                                     ----
             STORAGE     =   345243264.0000               STORAGE     =           4.6976
       CONSTANT HEAD     =           0.0000         CONSTANT HEAD     =           0.0000
     HEAD DEP BOUNDS     =    12910082.0000       HEAD DEP BOUNDS     =           0.2889
      STREAM LEAKAGE     =   456176928.0000        STREAM LEAKAGE     =           9.9220
        UZF RECHARGE     =           0.0000          UZF RECHARGE     =           0.0000
               GW ET     =           0.0000                 GW ET     =           0.0000
     SURFACE LEAKAGE     =           0.0000       SURFACE LEAKAGE     =           0.0000
           AG WELLS      =   405755808.0000             AG WELLS      =       4.7684E-07

               TOTAL OUT =  1220086016.0000                 TOTAL OUT =          14.9085

                IN - OUT =       -5632.0000                  IN - OUT =       6.4850E-05

     PERCENT DISCREPANCY =          -0.00         PERCENT DISCREPANCY =           0.00






         TIME SUMMARY AT END OF TIME STEP   30 IN STRESS PERIOD   18
                    SECONDS     MINUTES      HOURS       DAYS        YEARS
                    -----------------------------------------------------------
   TIME STEP LENGTH  87667.      1461.1      24.352      1.0147     2.77799E-03
 STRESS PERIOD TIME 2.63000E+06  43833.      730.56      30.440     8.33397E-02
         TOTAL TIME 4.47965E+07 7.46608E+05  12443.      518.48      1.4195    
1
1
                            STRESS PERIOD NO.   19, LENGTH =   2630000.    
                            -----------------------------------------------

                              NUMBER OF TIME STEPS =    30

                               MULTIPLIER FOR DELT =     1.000

                            INITIAL TIME STEP SIZE =   87666.66    

 REUSING NON-PARAMETER GHB CELLS FROM LAST STRESS PERIOD

      2 GHB CELLS

 REUSING STREAM SEGMENT DATA FROM LAST STRESS PERIOD



            AREAL INFILTRATION RATE
 READING ON UNIT   19 WITH FORMAT: (FREE)              

            1           2           3           4           5           6           7           8           9          10
 ........................................................................................................................
   1   1.0000E-10  2.0000E-10   0.000       0.000       0.000       0.000       0.000       0.000       0.000       0.000    
   2   2.0000E-10  1.0000E-10  2.0000E-10   0.000       0.000      8.0000E-10  8.0000E-10  5.0000E-10   0.000       0.000    
   3    0.000      5.0000E-10  1.0000E-10  1.0000E-10  8.0000E-10  8.0000E-10  5.0000E-10  5.0000E-10   0.000       0.000    
   4   8.0000E-10  5.0000E-10  1.0000E-10  1.0000E-10  1.0000E-10  1.0000E-10  1.0000E-10  1.0000E-10  2.0000E-10   0.000    
   5   8.0000E-10  5.0000E-10  1.0000E-10  1.0000E-10  1.0000E-10  1.0000E-10  1.0000E-10  1.0000E-10  1.0000E-10  1.0000E-10
   6   8.0000E-10  5.0000E-10  5.0000E-10  2.0000E-10  2.0000E-10  1.0000E-10  1.0000E-10  1.0000E-10  1.0000E-10  5.0000E-10
   7   8.0000E-10  5.0000E-10  5.0000E-10  2.0000E-10  2.0000E-10  1.0000E-10  1.0000E-10  2.0000E-10  2.0000E-10   0.000    
   8    0.000      5.0000E-10  5.0000E-10  2.0000E-10  2.0000E-10  1.0000E-10  1.0000E-10  2.0000E-10  5.0000E-10   0.000    
   9    0.000      5.0000E-10  5.0000E-10  2.0000E-10  2.0000E-10  1.0000E-10  1.0000E-10  2.0000E-10  5.0000E-10   0.000    
  10    0.000      5.0000E-10  5.0000E-10  2.0000E-10  2.0000E-10  1.0000E-10  1.0000E-10  2.0000E-10  5.0000E-10  8.0000E-10
  11    0.000      1.0000E-10  1.0000E-10  1.0000E-10  1.0000E-10  1.0000E-10  1.0000E-10  2.0000E-10  5.0000E-10   0.000    
  12   1.0000E-10  1.0000E-10  1.0000E-10  1.0000E-10  1.0000E-10  1.0000E-10  1.0000E-10  1.0000E-10  2.0000E-10   0.000    
  13   1.0000E-10  1.0000E-10  2.0000E-10  2.0000E-10  2.0000E-10  2.0000E-10  2.0000E-10  1.0000E-10  1.0000E-10   0.000    
  14    0.000      2.0000E-10  5.0000E-10  5.0000E-10  5.0000E-10  5.0000E-10  5.0000E-10  2.0000E-10  1.0000E-10   0.000    
  15    0.000       0.000      8.0000E-10  8.0000E-10  8.0000E-10  8.0000E-10   0.000       0.000       0.000       0.000    

                  ET RATE =  1.500000E-07

 USING ET EXTINCTION DEPTH FROM PREVIOUS STRESS PERIOD. CURRENT PERIOD IS:      19

 USING EXTINCTION WATER CONTENT FROM PREVIOUS STRESS PERIOD. CURRENT PERIOD IS:      19

 USING AIR ENTRY PRESSURE FROM PREVIOUS STRESS PERIOD. CURRENT PERIOD IS:      19

 USING ROOT PRESSURE HEAD FROM PREVIOUS STRESS PERIOD. CURRENT PERIOD IS:      19

 USING ROOT ACTIVITY FROM PREVIOUS STRESS PERIOD. CURRENT PERIOD IS:      19

 PROCESSING AG STRESS PERIOD DATA

 READING AG STRESS PERIOD DATA

 READING IRRIGATION SEGMENT

 READING IRRIGATION WELL

 READING SUPPLEMENTAL WELL

 NO IRRPOND OR REUSING IRRPOND DATA FROM LAST STRESS PERIOD

 END PROCESSING AG STRESS PERIOD DATA OPTIONS
 
 SOLVING FOR HEAD 
                                                   Max.-Head-Change                         Max.-Flux-Residual
  Residual-Control   Outer-Iter.   Inner-Iter.     Column Row Layer    Maximum-Head-Change  Column Row Layer    Maximum-Flux-Residual          L2-NORM 
          0                 1           2             4    7     1       0.6429631980E-02       4    7    1         0.3360893935E+00      0.1116464353E+01
          0                 2           2             4    7     1      -0.5639864314E-01       4    7    1        -0.3028818437E+01      0.7408070957E+01
          0                 3           2             4    7     1       0.3840487333E-02       4    7    1         0.2120141542E+00      0.5185598298E+00
          0                 4           2             4    7     1      -0.1528168275E-03       4    7    1        -0.8671405954E-02      0.2120992549E-01
          0                 5           1             4    7     1       0.1884297102E-05       4    7    1         0.1098934119E-03      0.2689453599E-03

    ------------------------------------------------
       NWT REQUIRED            5 OUTER ITERATIONS 
       AND A TOTAL OF          9 INNER ITERATIONS.
    ------------------------------------------------

 OUTPUT CONTROL FOR STRESS PERIOD   19   TIME STEP    1
    PRINT BUDGET
    SAVE BUDGET
 UBDSV1 SAVING "         STORAGE" ON UNIT 102 AT TIME STEP 1, STRESS PERIOD 19
 UBDSV2 SAVING "   CONSTANT HEAD" ON UNIT 102 AT TIME STEP 1, STRESS PERIOD 19
 UBDSV1 SAVING "FLOW RIGHT FACE " ON UNIT 102 AT TIME STEP 1, STRESS PERIOD 19
 UBDSV1 SAVING "FLOW FRONT FACE " ON UNIT 102 AT TIME STEP 1, STRESS PERIOD 19

  HEAD DEP BOUNDS   PERIOD   19   STEP     1
 BOUNDARY      1   LAYER   1   ROW    13   COL     1   RATE   -0.288753    
 BOUNDARY      2   LAYER   1   ROW    14   COL     9   RATE    0.288260    



 STREAM LISTING     PERIOD     19   STEP        1

 LAYER ROW COL. STREAM  RCH.  FLOW INTO     FLOW TO   FLOW OUT OF   OVRLND.     DIRECT     STREAM       STREAM     STREAM     STREAM   STREAMBED  STREAMBED
                SEG.NO.  NO.  STRM. RCH.    AQUIFER    STRM. RCH.    RUNOFF     PRECIP       ET          HEAD       DEPTH      WIDTH   CONDCTNC.   GRADIENT

   1    1    1     1     1    2.1826E+01  2.3002E-01   2.1596E+01  0.000E+00  0.000E+00  0.000E+00  1.09418E+03  1.129E+00  1.238E+01  5.571E-02  1.376E+00
   1    2    2     1     2    2.1596E+01  3.5556E-01   2.1240E+01  0.000E+00  0.000E+00  0.000E+00  1.08918E+03  1.124E+00  1.232E+01  8.622E-02  1.375E+00
   1    3    3     1     3    2.1240E+01  3.0257E-01   2.0938E+01  0.000E+00  0.000E+00  0.000E+00  1.08354E+03  1.119E+00  1.224E+01  7.347E-02  1.373E+00
   1    3    4     1     4    2.0938E+01  2.7808E-01   2.0660E+01  0.000E+00  0.000E+00  0.000E+00  1.07852E+03  1.114E+00  1.218E+01  6.760E-02  1.371E+00
   1    4    5     2     1    1.8660E+01  3.1263E-01   1.8347E+01  0.000E+00  0.000E+00  0.000E+00  1.07294E+03  1.008E+00  1.200E+01  7.800E-02  1.336E+00
   1    5    6     2     2    1.8347E+01  2.3994E-01   1.8107E+01  0.000E+00  0.000E+00  0.000E+00  1.06751E+03  9.990E-01  1.200E+01  6.000E-02  1.333E+00
   1    6    6     2     3    1.8107E+01  2.3947E-01   1.7868E+01  0.000E+00  0.000E+00  0.000E+00  1.06278E+03  9.911E-01  1.200E+01  6.000E-02  1.330E+00
   1    7    6     2     4    1.7868E+01  2.3899E-01   1.7629E+01  0.000E+00  0.000E+00  0.000E+00  1.05806E+03  9.832E-01  1.200E+01  6.000E-02  1.328E+00
   1    8    6     2     5    1.7629E+01  2.3851E-01   1.7390E+01  0.000E+00  0.000E+00  0.000E+00  1.05333E+03  9.752E-01  1.200E+01  6.000E-02  1.325E+00
   1    3    5     3     1    2.0000E+00  2.8252E-01   1.7175E+00  0.000E+00  0.000E+00  0.000E+00  1.07555E+03  1.909E+00  9.636E+00  7.227E-02  1.955E+00
   1    3    6     3     2    1.7175E+00  2.4905E-01   1.4684E+00  0.000E+00  0.000E+00  0.000E+00  1.07264E+03  1.727E+00  8.909E+00  6.682E-02  1.864E+00
   1    3    7     3     3    1.4684E+00  1.9718E-01   1.2712E+00  0.000E+00  0.000E+00  0.000E+00  1.06987E+03  1.555E+00  8.218E+00  5.547E-02  1.777E+00
   1    4    8     3     4    1.2712E+00  2.2567E-01   1.0456E+00  0.000E+00  0.000E+00  0.000E+00  1.06682E+03  1.364E+00  7.455E+00  6.709E-02  1.682E+00
   1    5    8     3     5    1.0456E+00  1.5790E-01   8.8768E-01  0.000E+00  0.000E+00  0.000E+00  1.06362E+03  1.164E+00  6.655E+00  4.991E-02  1.582E+00
   1    6    8     3     6    8.8768E-01  5.5980E-02   8.3170E-01  0.000E+00  0.000E+00  0.000E+00  1.06158E+03  1.036E+00  6.145E+00  1.844E-02  1.518E+00
   1    5   10     4     1    1.0000E+01  9.0919E-02   9.9091E+00  0.000E+00  0.000E+00  0.000E+00  1.07836E+03  6.368E-01  1.000E+01  2.500E-02  1.212E+00
   1    5    9     4     2    9.9091E+00  1.8158E-01   9.7275E+00  0.000E+00  0.000E+00  0.000E+00  1.07154E+03  6.315E-01  1.000E+01  5.000E-02  1.211E+00
   1    6    8     4     3    9.7275E+00  1.2689E-01   9.6006E+00  0.000E+00  0.000E+00  0.000E+00  1.06381E+03  6.256E-01  1.000E+01  3.500E-02  1.209E+00
   1    6    8     5     1    1.0432E+01  2.2686E-01   1.0205E+01  0.000E+00  0.000E+00  0.000E+00  1.05868E+03  6.790E-01  1.542E+01  6.166E-02  1.226E+00
   1    7    7     5     2    1.0205E+01  2.7894E-01   9.9265E+00  0.000E+00  0.000E+00  0.000E+00  1.05417E+03  6.732E-01  1.519E+01  7.594E-02  1.224E+00
   1    8    7     5     3    9.9265E+00  1.9221E-01   9.7343E+00  0.000E+00  0.000E+00  0.000E+00  1.04992E+03  6.676E-01  1.497E+01  5.241E-02  1.223E+00
   1    8    6     5     4    9.7343E+00  1.3577E-01   9.5985E+00  0.000E+00  0.000E+00  0.000E+00  1.04691E+03  6.637E-01  1.482E+01  3.706E-02  1.221E+00
   1    9    6     6     1    9.5985E+00  2.2097E-01   9.3776E+00  0.000E+00  0.000E+00  0.000E+00  1.04341E+03  6.828E-01  1.200E+01  6.000E-02  1.228E+00
   1   10    7     6     2    9.3776E+00  2.2039E-01   9.1572E+00  0.000E+00  0.000E+00  0.000E+00  1.03885E+03  6.732E-01  1.200E+01  6.000E-02  1.224E+00
   1   11    7     6     3    9.1572E+00  2.1981E-01   8.9374E+00  0.000E+00  0.000E+00  0.000E+00  1.03430E+03  6.636E-01  1.200E+01  6.000E-02  1.221E+00
   1   12    7     6     4    8.9374E+00  2.1923E-01   8.7181E+00  0.000E+00  0.000E+00  0.000E+00  1.02974E+03  6.539E-01  1.200E+01  6.000E-02  1.218E+00
   1   13    7     6     5    8.7181E+00 -4.0421E-02   8.7586E+00  0.000E+00  0.000E+00  0.000E+00  1.02656E+03  6.499E-01  1.200E+01  2.400E-01 -5.614E-02
   1   14    9     7     1    1.5000E+02  1.3726E+00   1.4863E+02  0.000E+00  0.000E+00  0.000E+00  1.03987E+03  2.288E+00  5.529E+01  5.593E-01  8.180E-01
   1   13    8     7     2    1.4863E+02  1.9450E+00   1.4668E+02  0.000E+00  0.000E+00  0.000E+00  1.03478E+03  2.279E+00  5.525E+01  6.147E-01  1.055E+00
   1   13    7     7     3    1.4668E+02  1.6535E+00   1.4503E+02  0.000E+00  0.000E+00  0.000E+00  1.02969E+03  2.269E+00  5.521E+01  5.584E-01  9.871E-01
   1   13    6     8     1    1.5379E+02  1.0107E+00   1.5278E+02  0.000E+00  0.000E+00  0.000E+00  1.02471E+03  2.840E+00  4.118E+01  4.196E-01  8.029E-01
   1   13    5     8     2    1.5278E+02  2.7524E-01   1.5250E+02  0.000E+00  0.000E+00  0.000E+00  1.01846E+03  2.835E+00  4.111E+01  4.189E-01  2.190E-01
   1   13    4     8     3    1.5250E+02 -2.2171E+00   1.5472E+02  0.000E+00  0.000E+00  0.000E+00  1.01222E+03  2.842E+00  4.121E+01  4.199E+00 -1.760E-01
   1   13    3     8     4    1.5472E+02 -3.6375E+00   1.5836E+02  0.000E+00  0.000E+00  0.000E+00  1.00599E+03  2.862E+00  4.150E+01  4.229E+00 -2.867E-01
   1   13    2     8     5    1.5836E+02 -2.7655E+00   1.6112E+02  0.000E+00  0.000E+00  0.000E+00  9.99759E+02  2.884E+00  4.182E+01  4.262E+00 -2.163E-01
   1   13    1     8     6    1.6112E+02 -2.1170E+00   1.6324E+02  0.000E+00  0.000E+00  0.000E+00  9.94776E+02  2.901E+00  4.206E+01  2.571E+00 -2.744E-01
   1    8    6     9     1    1.7390E+01  0.0000E+00   1.7390E+01  0.000E+00  0.000E+00  0.000E+00  1.08191E+03  3.158E+00  4.000E+00  0.000E+00  2.053E+00
   1    8    5     9     2    1.7390E+01  0.0000E+00   1.7390E+01  0.000E+00  0.000E+00  0.000E+00  1.08141E+03  3.158E+00  4.000E+00  0.000E+00  2.053E+00



 UBDSV3 SAVING "           GW ET" ON UNIT  61 AT TIME STEP 1, STRESS PERIOD 19
 UBDSV3 SAVING "    UZF RECHARGE" ON UNIT  61 AT TIME STEP 1, STRESS PERIOD 19
 UBDSV3 SAVING " SURFACE LEAKAGE" ON UNIT  61 AT TIME STEP 1, STRESS PERIOD 19
 UBDSV3 SAVING "       HORT+DUNN" ON UNIT  61 AT TIME STEP 1, STRESS PERIOD 19
 UBDSV3 SAVING "  STORAGE CHANGE" ON UNIT  61 AT TIME STEP 1, STRESS PERIOD 19


UNSATURATED ZONE PACKAGE VOLUMETRIC BUDGET FOR  TIME STEP     1 STRESS PERIOD   19
  ------------------------------------------------------------------------------



     CUMULATIVE VOLUMES      L**3       RATES FOR THIS TIME STEP      L**3/T
     ------------------                 ------------------------

           IN:                                      IN:
           ---                                      ---
        INFILTRATION =   695973420.7859          INFILTRATION =          36.2092

          OUT:                                     OUT:
          ----                                     ----
              UZF ET =   472638981.7723                UZF ET =          23.3175
        UZF RECHARGE =       73224.0000          UZF RECHARGE =       0.0000E+00

            IN - OUT =   223261215.0136              IN - OUT =          12.8917

          STORAGE:                                 STORAGE:
          --------                                 --------
      STORAGE CHANGE =   223261423.0711        STORAGE CHANGE =          12.8917

 PERCENT DISCREPANCY IS DIFFERENCE BETWEEN IN-OUT MINUS CHANGE IN STORAGE
 DIVIDED BY THE AVERAGE OF IN AND OUT TIMES 100

 PERCENT DISCREPANCY =          -0.00     PERCENT DISCREPANCY =           0.00






 

            AG WELLS      PERIOD   19   STEP   1
 AG WELL      1   LAYER   1   ROW     6   COL     4   RATE    -2.99521    
 AG WELL      2   LAYER   1   ROW     6   COL     5   RATE    -2.99521    
 AG WELL      3   LAYER   1   ROW     7   COL     4   RATE    -2.99521    
 AG WELL      4   LAYER   1   ROW     7   COL     5   RATE    -2.99521    
 AG WELL      5   LAYER   1   ROW     8   COL     4   RATE    -2.99521    
 AG WELL      6   LAYER   1   ROW     8   COL     5   RATE    -2.99521    
 
 

   DIVERSION SEGMENTS     PERIOD   19   STEP   1
 SEGMENT      9   RATE     17.3901    
 
 

        SW IRRIGATION     PERIOD   19   STEP   1
 SEGMENT      9   ROW     6   COL     4   RATE     2.89841    
 SEGMENT      9   ROW     6   COL     5   RATE     2.89841    
 SEGMENT      9   ROW     7   COL     4   RATE     2.89841    
 SEGMENT      9   ROW     7   COL     5   RATE     2.89841    
 SEGMENT      9   ROW     8   COL     4   RATE     2.89841    
 SEGMENT      9   ROW     8   COL     5   RATE     2.89841    
 
 

        GW IRRIGATION     PERIOD   19   STEP   1
 AG WELL      1   ROW     6   COL     4   RATE     2.99521    
 AG WELL      2   ROW     6   COL     5   RATE     2.99521    
 AG WELL      3   ROW     7   COL     4   RATE     2.99521    
 AG WELL      4   ROW     7   COL     5   RATE     2.99521    
 AG WELL      5   ROW     8   COL     4   RATE     2.99521    
 AG WELL      6   ROW     8   COL     5   RATE     2.99521    
 
1
  VOLUMETRIC BUDGET FOR AGRICULTURAL FIELDS AT  END OF TIME STEP    1, STRESS PERIOD  19
  ------------------------------------------------------------------------------

     CUMULATIVE VOLUMES      L**3       RATES FOR THIS TIME STEP      L**3/T
     ------------------                 ------------------------

           IN:                                      IN:
           ---                                      ---
               AG WELLS  =   407331296.0000                 AG WELLS  =          17.9713
      DIVERSION SEGMENTS =   250660816.0000        DIVERSION SEGMENTS =          17.3901
       IRRIGATION PONDS  =           0.0000         IRRIGATION PONDS  =           0.0000
           GW IRRIGATION =           0.0000             GW IRRIGATION =           0.0000
           SW IRRIGATION =           0.0000             SW IRRIGATION =           0.0000
        SYSTEM LOSSES GW =           0.0000          SYSTEM LOSSES GW =           0.0000
        SYSTEM LOSSES SW =           0.0000          SYSTEM LOSSES SW =           0.0000

                TOTAL IN =   657992128.0000                  TOTAL IN =          35.3614

          OUT:                                     OUT:
          ----                                     ----
               AG WELLS  =           0.0000                 AG WELLS  =           0.0000
      DIVERSION SEGMENTS =           0.0000        DIVERSION SEGMENTS =           0.0000
       IRRIGATION PONDS  =           0.0000         IRRIGATION PONDS  =           0.0000
           GW IRRIGATION =   407331296.0000             GW IRRIGATION =          17.9713
           SW IRRIGATION =   250665744.0000             SW IRRIGATION =          17.3904
        SYSTEM LOSSES GW =           0.0000          SYSTEM LOSSES GW =           0.0000
        SYSTEM LOSSES SW =           0.0000          SYSTEM LOSSES SW =           0.0000

               TOTAL OUT =   657997056.0000                 TOTAL OUT =          35.3617

                IN - OUT =       -4928.0000                  IN - OUT =      -3.4714E-04

     PERCENT DISCREPANCY =          -0.00         PERCENT DISCREPANCY =          -0.00



1
  VOLUMETRIC BUDGET FOR ENTIRE MODEL AT END OF TIME STEP    1, STRESS PERIOD  19
  ------------------------------------------------------------------------------

     CUMULATIVE VOLUMES      L**3       RATES FOR THIS TIME STEP      L**3/T
     ------------------                 ------------------------

           IN:                                      IN:
           ---                                      ---
             STORAGE     =   679907904.0000               STORAGE     =          19.3317
       CONSTANT HEAD     =           0.0000         CONSTANT HEAD     =           0.0000
     HEAD DEP BOUNDS     =    12926521.0000       HEAD DEP BOUNDS     =           0.2883
      STREAM LEAKAGE     =   529942528.0000        STREAM LEAKAGE     =          11.9746
        UZF RECHARGE     =       73223.9531          UZF RECHARGE     =           0.0000
               GW ET     =           0.0000                 GW ET     =           0.0000
     SURFACE LEAKAGE     =           0.0000       SURFACE LEAKAGE     =           0.0000
           AG WELLS      =           0.0000             AG WELLS      =           0.0000

                TOTAL IN =  1222850176.0000                  TOTAL IN =          31.5945

          OUT:                                     OUT:
          ----                                     ----
             STORAGE     =   345467424.0000               STORAGE     =           2.5570
       CONSTANT HEAD     =           0.0000         CONSTANT HEAD     =           0.0000
     HEAD DEP BOUNDS     =    12935396.0000       HEAD DEP BOUNDS     =           0.2888
      STREAM LEAKAGE     =   457121760.0000        STREAM LEAKAGE     =          10.7775
        UZF RECHARGE     =           0.0000          UZF RECHARGE     =           0.0000
               GW ET     =           0.0000                 GW ET     =           0.0000
     SURFACE LEAKAGE     =           0.0000       SURFACE LEAKAGE     =           0.0000
           AG WELLS      =   407331296.0000             AG WELLS      =          17.9713

               TOTAL OUT =  1222855936.0000                 TOTAL OUT =          31.5945

                IN - OUT =       -5760.0000                  IN - OUT =       1.3351E-05

     PERCENT DISCREPANCY =          -0.00         PERCENT DISCREPANCY =           0.00






         TIME SUMMARY AT END OF TIME STEP    1 IN STRESS PERIOD   19
                    SECONDS     MINUTES      HOURS       DAYS        YEARS
                    -----------------------------------------------------------
   TIME STEP LENGTH  87667.      1461.1      24.352      1.0147     2.77799E-03
 STRESS PERIOD TIME  87667.      1461.1      24.352      1.0147     2.77799E-03
         TOTAL TIME 4.48841E+07 7.48069E+05  12468.      519.49      1.4223    
1
 
 SOLVING FOR HEAD 
                                                   Max.-Head-Change                         Max.-Flux-Residual
  Residual-Control   Outer-Iter.   Inner-Iter.     Column Row Layer    Maximum-Head-Change  Column Row Layer    Maximum-Flux-Residual          L2-NORM 
          0                 1           2             4    7     1       0.6723995271E-02       4    8    1         0.3503848348E+00      0.1062390340E+01
          0                 2           2             7   13     1      -0.1776398651E-02       7   13    1        -0.9866268506E-01      0.1442781202E+00
          0                 3           2             4    7     1      -0.1478330071E-01       5    7    1        -0.7940457445E+00      0.1954053588E+01
          0                 4           2             4    7     1       0.1458178200E-01       5    7    1         0.8049819734E+00      0.1971663764E+01
          0                 5           2             4    6     1      -0.1154895099E-03       4    6    1        -0.6651869473E-02      0.1668654850E-01
          0                 6           2             4    7     1      -0.1187946638E-03       4    7    1        -0.6740714305E-02      0.1773587874E-01
          0                 7           2             4    7     1      -0.1490587798E-03       4    6    1        -0.8457885770E-02      0.2239271683E-01
          0                 8           2             4    7     1      -0.3503008506E-02       4    8    1        -0.1987648957E+00      0.4900718463E+00
          0                 9           2             4    7     1       0.3535282671E-02       5    6    1         0.2061705179E+00      0.5050583052E+00
          0                10           2             4    7     1      -0.4742736364E-02       4    8    1        -0.2842488294E+00      0.7003630014E+00
                                                   Max.-Head-Change                         Max.-Flux-Residual
  Residual-Control   Outer-Iter.   Inner-Iter.     Column Row Layer    Maximum-Head-Change  Column Row Layer    Maximum-Flux-Residual          L2-NORM 
          0                11           2             4    7     1       0.4425524412E-02       5    6    1         0.2725611374E+00      0.6676751906E+00
          0                12           2             4    7     1       0.3022785955E-03       5    6    1         0.1861668462E-01      0.4628656096E-01
          0                13           1             4   13     1      -0.8125904170E-04       4   13    1        -0.5051436527E-02      0.9277072423E-02

    ------------------------------------------------
       NWT REQUIRED           13 OUTER ITERATIONS 
       AND A TOTAL OF         25 INNER ITERATIONS.
    ------------------------------------------------

 NO OUTPUT CONTROL FOR STRESS PERIOD   19   TIME STEP    2
 
 SOLVING FOR HEAD 
                                                   Max.-Head-Change                         Max.-Flux-Residual
  Residual-Control   Outer-Iter.   Inner-Iter.     Column Row Layer    Maximum-Head-Change  Column Row Layer    Maximum-Flux-Residual          L2-NORM 
          0                 1           2             4    7     1       0.6711701951E-02       4    7    1         0.3495658102E+00      0.1056430655E+01
          0                 2           2             4    7     1      -0.2436341922E-01       4    7    1        -0.1308291469E+01      0.3219538085E+01
          0                 3           2             4    7     1      -0.3985055766E-02       4    6    1        -0.2145548558E+00      0.6306719976E+00
          0                 4           2             4    7     1      -0.1185453251E-01       4    7    1        -0.6366101050E+00      0.1559950725E+01
          0                 5           2             4    7     1       0.8074780764E-03       4    7    1         0.4457531634E-01      0.1092477429E+00
          0                 6           1             4    7     1      -0.3214555745E-04       4    7    1        -0.1823998398E-02      0.4474683878E-02

    ------------------------------------------------
       NWT REQUIRED            6 OUTER ITERATIONS 
       AND A TOTAL OF         11 INNER ITERATIONS.
    ------------------------------------------------

 NO OUTPUT CONTROL FOR STRESS PERIOD   19   TIME STEP    3
 
 SOLVING FOR HEAD 
                                                   Max.-Head-Change                         Max.-Flux-Residual
  Residual-Control   Outer-Iter.   Inner-Iter.     Column Row Layer    Maximum-Head-Change  Column Row Layer    Maximum-Flux-Residual          L2-NORM 
          0                 1           2             5    8     1       0.7444789898E-02       5    8    1         0.3961488731E+00      0.1115584836E+01
          0                 2           2             7   13     1      -0.1786319896E-02       7   13    1        -0.9920951475E-01      0.1484438762E+00
          0                 3           2             4    7     1      -0.2820490319E-01       5    7    1        -0.1514687603E+01      0.3727500481E+01
          0                 4           2             4    7     1       0.2806946886E-01       5    7    1         0.1549537812E+01      0.3795558762E+01
          0                 5           2             4    7     1      -0.4513167788E-03       4    8    1        -0.2560979081E-01      0.6334086802E-01
          0                 6           2             4    7     1      -0.1772034334E-03       5    6    1        -0.1005486164E-01      0.2693711422E-01
          0                 7           2             4    7     1      -0.5640547249E-02       4    8    1        -0.3200518416E+00      0.7887540500E+00
          0                 8           2             4   13     1      -0.7644816225E-03       4   13    1        -0.4749303110E-01      0.1021684355E+00
          0                 9           2             4    7     1       0.5920522763E-02       5    6    1         0.3452698080E+00      0.8457817759E+00
          0                10           1             4    7     1       0.8684850893E-04       5    6    1         0.5064759091E-02      0.1242134736E-01

    ------------------------------------------------
       NWT REQUIRED           10 OUTER ITERATIONS 
       AND A TOTAL OF         19 INNER ITERATIONS.
    ------------------------------------------------

 NO OUTPUT CONTROL FOR STRESS PERIOD   19   TIME STEP    4
 
 SOLVING FOR HEAD 
                                                   Max.-Head-Change                         Max.-Flux-Residual
  Residual-Control   Outer-Iter.   Inner-Iter.     Column Row Layer    Maximum-Head-Change  Column Row Layer    Maximum-Flux-Residual          L2-NORM 
          0                 1           2             5    8     1       0.7276954927E-02       5    8    1         0.3868705934E+00      0.1112197279E+01
          0                 2           2             4    7     1      -0.1039615619E-01       5    8    1        -0.5607478137E+00      0.1383313543E+01
          0                 3           2             4    7     1      -0.3464465693E-01       5    7    1        -0.1860533748E+01      0.4590309156E+01
          0                 4           2             4    7     1       0.4401756010E-01       5    7    1         0.2429930362E+01      0.5952301737E+01
          0                 5           2             4    7     1      -0.8352576198E-02       4    8    1        -0.4739484112E+00      0.1160927909E+01
          0                 6           2             4    7     1      -0.5064294257E-02       4    8    1        -0.2873573943E+00      0.7038788039E+00
          0                 7           1             4    7     1       0.6254014219E-04       5    6    1         0.3647272528E-02      0.8933903091E-02

    ------------------------------------------------
       NWT REQUIRED            7 OUTER ITERATIONS 
       AND A TOTAL OF         13 INNER ITERATIONS.
    ------------------------------------------------

 NO OUTPUT CONTROL FOR STRESS PERIOD   19   TIME STEP    5
 
 SOLVING FOR HEAD 
                                                   Max.-Head-Change                         Max.-Flux-Residual
  Residual-Control   Outer-Iter.   Inner-Iter.     Column Row Layer    Maximum-Head-Change  Column Row Layer    Maximum-Flux-Residual          L2-NORM 
          0                 1           2             5    8     1       0.7532640433E-02       5    8    1         0.4009233603E+00      0.1133321188E+01
          0                 2           2             4    6     1      -0.1958774252E-02       5    8    1        -0.1074699854E+00      0.2862618000E+00
          0                 3           2             4    7     1      -0.5242759577E-01       4    7    1        -0.2815497135E+01      0.6928543532E+01
          0                 4           2             4    7     1       0.5332721614E-01       5    7    1         0.2943853654E+01      0.7211148896E+01
          0                 5           2             4    7     1      -0.2764929404E-02       4    8    1        -0.1568933076E+00      0.3843097948E+00
          0                 6           2             4    7     1      -0.6208984802E-03       5    6    1        -0.3523093711E-01      0.8629781926E-01
          0                 7           2             4    7     1      -0.6513382572E-02       4    8    1        -0.3695775296E+00      0.9052763650E+00
          0                 8           2             4    7     1      -0.4618419796E-02       4    8    1        -0.2620523849E+00      0.6418944519E+00
          0                 9           1             4    7     1       0.5712383748E-04       5    6    1         0.3331331284E-02      0.8160017330E-02

    ------------------------------------------------
       NWT REQUIRED            9 OUTER ITERATIONS 
       AND A TOTAL OF         17 INNER ITERATIONS.
    ------------------------------------------------

 NO OUTPUT CONTROL FOR STRESS PERIOD   19   TIME STEP    6
 
 SOLVING FOR HEAD 
                                                   Max.-Head-Change                         Max.-Flux-Residual
  Residual-Control   Outer-Iter.   Inner-Iter.     Column Row Layer    Maximum-Head-Change  Column Row Layer    Maximum-Flux-Residual          L2-NORM 
          0                 1           2             5    8     1       0.7807932030E-02       5    8    1         0.4160467832E+00      0.1156441640E+01
          0                 2           2             5    8     1      -0.2057454721E-02       5    8    1        -0.1130042618E+00      0.2980544315E+00
          0                 3           2             4    7     1      -0.5227867332E-01       4    7    1        -0.2807500109E+01      0.6908893278E+01
          0                 4           2             4    7     1       0.5327373167E-01       4    7    1         0.2940899160E+01      0.7203905626E+01
          0                 5           2             4    7     1      -0.8678023757E-02       4    8    1        -0.4924161104E+00      0.1206160913E+01
          0                 6           2             4    7     1      -0.5954109737E-02       4    8    1        -0.3378469252E+00      0.8275524126E+00
          0                 7           1             4    7     1       0.7329965034E-04       5    6    1         0.4274756484E-02      0.1047089742E-01

    ------------------------------------------------
       NWT REQUIRED            7 OUTER ITERATIONS 
       AND A TOTAL OF         13 INNER ITERATIONS.
    ------------------------------------------------

 NO OUTPUT CONTROL FOR STRESS PERIOD   19   TIME STEP    7
 
 SOLVING FOR HEAD 
                                                   Max.-Head-Change                         Max.-Flux-Residual
  Residual-Control   Outer-Iter.   Inner-Iter.     Column Row Layer    Maximum-Head-Change  Column Row Layer    Maximum-Flux-Residual          L2-NORM 
          0                 1           2             5    8     1       0.8071055176E-02       5    8    1         0.4304911668E+00      0.1179689874E+01
          0                 2           2             5    8     1      -0.2090948543E-02       5    8    1        -0.1148831942E+00      0.3016877681E+00
          0                 3           2             4    7     1      -0.5226530088E-01       4    7    1        -0.2806782301E+01      0.6907083613E+01
          0                 4           2             4    7     1       0.5324931588E-01       4    7    1         0.2939550406E+01      0.7200593397E+01
          0                 5           2             4    7     1      -0.8487975121E-02       4    8    1        -0.4816320311E+00      0.1179745448E+01
          0                 6           2             4    7     1      -0.6131198952E-02       4    8    1        -0.3478951624E+00      0.8521654809E+00
          0                 7           1             4    7     1       0.7506137067E-04       5    6    1         0.4377497614E-02      0.1072255646E-01

    ------------------------------------------------
       NWT REQUIRED            7 OUTER ITERATIONS 
       AND A TOTAL OF         13 INNER ITERATIONS.
    ------------------------------------------------

 NO OUTPUT CONTROL FOR STRESS PERIOD   19   TIME STEP    8
 
 SOLVING FOR HEAD 
                                                   Max.-Head-Change                         Max.-Flux-Residual
  Residual-Control   Outer-Iter.   Inner-Iter.     Column Row Layer    Maximum-Head-Change  Column Row Layer    Maximum-Flux-Residual          L2-NORM 
          0                 1           2             5    8     1       0.8320345797E-02       5    8    1         0.4441660398E+00      0.1202757089E+01
          0                 2           2             5    8     1      -0.2118939538E-02       5    8    1        -0.1164564869E+00      0.3047280277E+00
          0                 3           2             4    7     1      -0.5226056050E-01       4    7    1        -0.2806527918E+01      0.6906415982E+01
          0                 4           2             4    7     1       0.5322382670E-01       4    7    1         0.2938142378E+01      0.7197134076E+01
          0                 5           2             4    7     1      -0.2763319466E-02       4    8    1        -0.1568014774E+00      0.3840839369E+00
          0                 6           2             4    7     1      -0.6103924406E-03       5    6    1        -0.3463477685E-01      0.8483751766E-01
          0                 7           2             4    7     1      -0.6452047560E-03       4    8    1        -0.3660969392E-01      0.8967506679E-01
          0                 8           2             4    7     1      -0.1063098001E-01       4    8    1        -0.6032086038E+00      0.1477553286E+01
          0                 9           2             4    7     1       0.1301769291E-03       5    6    1         0.7591660440E-02      0.1859545270E-01
          0                10           1             4    7     1       0.1909566123E-05       5    6    1         0.1113609715E-03      0.2727741279E-03

    ------------------------------------------------
       NWT REQUIRED           10 OUTER ITERATIONS 
       AND A TOTAL OF         19 INNER ITERATIONS.
    ------------------------------------------------

 NO OUTPUT CONTROL FOR STRESS PERIOD   19   TIME STEP    9
 
 SOLVING FOR HEAD 
                                                   Max.-Head-Change                         Max.-Flux-Residual
  Residual-Control   Outer-Iter.   Inner-Iter.     Column Row Layer    Maximum-Head-Change  Column Row Layer    Maximum-Flux-Residual          L2-NORM 
          0                 1           2             5    8     1       0.8556685645E-02       5    8    1         0.4571206744E+00      0.1225514185E+01
          0                 2           2             5    8     1      -0.2145685918E-02       5    8    1        -0.1179585897E+00      0.3076961908E+00
          0                 3           2             4    7     1      -0.5225578296E-01       4    7    1        -0.2806271413E+01      0.6905747237E+01
          0                 4           2             4    7     1       0.5322299016E-01       5    7    1         0.2936659538E+01      0.7193439836E+01
          0                 5           2             4    7     1      -0.2795193137E-02       4    7    1        -0.1586871940E+00      0.3855190797E+00
          0                 6           2             4    7     1      -0.6414315115E-02       5    6    1        -0.3639783005E+00      0.8915528441E+00
          0                 7           2             4    7     1      -0.5374564714E-02       4    7    1        -0.3049591033E+00      0.7469936889E+00
          0                 8           1             4    7     1       0.6586800321E-04       5    6    1         0.3841303698E-02      0.9409174686E-02

    ------------------------------------------------
       NWT REQUIRED            8 OUTER ITERATIONS 
       AND A TOTAL OF         15 INNER ITERATIONS.
    ------------------------------------------------

 NO OUTPUT CONTROL FOR STRESS PERIOD   19   TIME STEP   10
 
 SOLVING FOR HEAD 
                                                   Max.-Head-Change                         Max.-Flux-Residual
  Residual-Control   Outer-Iter.   Inner-Iter.     Column Row Layer    Maximum-Head-Change  Column Row Layer    Maximum-Flux-Residual          L2-NORM 
          0                 1           2             5    8     1       0.8780861469E-02       5    8    1         0.4693996114E+00      0.1247836332E+01
          0                 2           2             5    8     1      -0.2171264348E-02       5    8    1        -0.1193939641E+00      0.3105900160E+00
          0                 3           2             4    7     1      -0.5225097023E-01       4    7    1        -0.2806012896E+01      0.6905078522E+01
          0                 4           2             4    7     1       0.5325828219E-01       5    7    1         0.2938972679E+01      0.7198945648E+01
          0                 5           2             4    7     1      -0.8633784306E-02       4    7    1        -0.4899611948E+00      0.1197782627E+01
          0                 6           2             4    7     1      -0.5993492510E-02       4    8    1        -0.3400950967E+00      0.8330532660E+00
          0                 7           1             4    7     1       0.7336695002E-04       5    6    1         0.4278853424E-02      0.1048085529E-01

    ------------------------------------------------
       NWT REQUIRED            7 OUTER ITERATIONS 
       AND A TOTAL OF         13 INNER ITERATIONS.
    ------------------------------------------------

 NO OUTPUT CONTROL FOR STRESS PERIOD   19   TIME STEP   11
 
 SOLVING FOR HEAD 
                                                   Max.-Head-Change                         Max.-Flux-Residual
  Residual-Control   Outer-Iter.   Inner-Iter.     Column Row Layer    Maximum-Head-Change  Column Row Layer    Maximum-Flux-Residual          L2-NORM 
          0                 1           2             5    8     1       0.8993797507E-02       5    8    1         0.4810542525E+00      0.1269676009E+01
          0                 2           2             5    8     1      -0.2195765410E-02       5    8    1        -0.1207677876E+00      0.3134127382E+00
          0                 3           2             4    7     1      -0.5224613786E-01       4    7    1        -0.2805753219E+01      0.6904411116E+01
          0                 4           2             4    7     1       0.5321775127E-01       5    7    1         0.2937095275E+01      0.7194190398E+01
          0                 5           2             4    7     1      -0.8663154673E-02       4    7    1        -0.4916068773E+00      0.1202625807E+01
          0                 6           2             4    7     1      -0.5922984294E-02       4    8    1        -0.3360894348E+00      0.8232434974E+00
          0                 7           1             4    7     1       0.7249521364E-04       5    6    1         0.4227952213E-02      0.1035620118E-01

    ------------------------------------------------
       NWT REQUIRED            7 OUTER ITERATIONS 
       AND A TOTAL OF         13 INNER ITERATIONS.
    ------------------------------------------------

 NO OUTPUT CONTROL FOR STRESS PERIOD   19   TIME STEP   12
 
 SOLVING FOR HEAD 
                                                   Max.-Head-Change                         Max.-Flux-Residual
  Residual-Control   Outer-Iter.   Inner-Iter.     Column Row Layer    Maximum-Head-Change  Column Row Layer    Maximum-Flux-Residual          L2-NORM 
          0                 1           2             5    8     1       0.9196082265E-02       5    8    1         0.4921180234E+00      0.1290968552E+01
          0                 2           2             5    8     1      -0.2219242423E-02       5    8    1        -0.1220831867E+00      0.3161627374E+00
          0                 3           2             4    7     1      -0.5224127870E-01       4    7    1        -0.2805492004E+01      0.6903744336E+01
          0                 4           2             4    7     1       0.5323966306E-01       5    7    1         0.2938655976E+01      0.7197859765E+01
          0                 5           2             4    7     1      -0.8635958142E-02       4    7    1        -0.4900433448E+00      0.1199587992E+01
          0                 6           2             4    7     1      -0.5973003198E-02       4    8    1        -0.3389228050E+00      0.8301858203E+00
          0                 7           1             5    7     1       0.7238893563E-04       5    6    1         0.4263318530E-02      0.1042286493E-01

    ------------------------------------------------
       NWT REQUIRED            7 OUTER ITERATIONS 
       AND A TOTAL OF         13 INNER ITERATIONS.
    ------------------------------------------------

 NO OUTPUT CONTROL FOR STRESS PERIOD   19   TIME STEP   13
 
 SOLVING FOR HEAD 
                                                   Max.-Head-Change                         Max.-Flux-Residual
  Residual-Control   Outer-Iter.   Inner-Iter.     Column Row Layer    Maximum-Head-Change  Column Row Layer    Maximum-Flux-Residual          L2-NORM 
          0                 1           2             5    8     1       0.9388409916E-02       5    8    1         0.5026295832E+00      0.1311679728E+01
          0                 2           2             5    8     1      -0.2241764367E-02       5    8    1        -0.1233440720E+00      0.3188722808E+00
          0                 3           2             4    7     1      -0.5223629172E-01       4    7    1        -0.2805223506E+01      0.6903076095E+01
          0                 4           2             4    7     1       0.5319271404E-01       5    7    1         0.2936410864E+01      0.7192210145E+01
          0                 5           2             4    7     1      -0.2765825850E-02       4    8    1        -0.1569482967E+00      0.3844407083E+00
          0                 6           2             4    7     1      -0.6206456159E-03       4    7    1        -0.3519858042E-01      0.8616572913E-01
          0                 7           2             4    7     1      -0.6537253380E-02       4    8    1        -0.3707290260E+00      0.9080968091E+00
          0                 8           2             4    7     1      -0.4628815696E-02       4    8    1        -0.2624983834E+00      0.6429869100E+00
          0                 9           1             4    7     1       0.5675564219E-04       5    6    1         0.3308033153E-02      0.8102954251E-02

    ------------------------------------------------
       NWT REQUIRED            9 OUTER ITERATIONS 
       AND A TOTAL OF         17 INNER ITERATIONS.
    ------------------------------------------------

 NO OUTPUT CONTROL FOR STRESS PERIOD   19   TIME STEP   14
 
 SOLVING FOR HEAD 
                                                   Max.-Head-Change                         Max.-Flux-Residual
  Residual-Control   Outer-Iter.   Inner-Iter.     Column Row Layer    Maximum-Head-Change  Column Row Layer    Maximum-Flux-Residual          L2-NORM 
          0                 1           2             5    8     1       0.9571406891E-02       5    8    1         0.5126242636E+00      0.1331733495E+01
          0                 2           2             5    8     1      -0.2263392755E-02       5    8    1        -0.1245540960E+00      0.3214423671E+00
          0                 3           2             4    7     1      -0.5226003723E-01       4    7    1        -0.2804968355E+01      0.6902413333E+01
          0                 4           2             4    7     1       0.5323920308E-01       4    7    1         0.2937386788E+01      0.7195247957E+01
          0                 5           2             4    7     1      -0.8706326224E-02       4    8    1        -0.4937524754E+00      0.1209433085E+01
          0                 6           2             4    7     1      -0.5880496094E-02       4    8    1        -0.3334872430E+00      0.8168734045E+00
          0                 7           1             4    7     1       0.7197154749E-04       5    6    1         0.4194983660E-02      0.1027550557E-01

    ------------------------------------------------
       NWT REQUIRED            7 OUTER ITERATIONS 
       AND A TOTAL OF         13 INNER ITERATIONS.
    ------------------------------------------------

 NO OUTPUT CONTROL FOR STRESS PERIOD   19   TIME STEP   15
 
 SOLVING FOR HEAD 
                                                   Max.-Head-Change                         Max.-Flux-Residual
  Residual-Control   Outer-Iter.   Inner-Iter.     Column Row Layer    Maximum-Head-Change  Column Row Layer    Maximum-Flux-Residual          L2-NORM 
          0                 1           2             5    8     1       0.9745545142E-02       5    8    1         0.5221283205E+00      0.1351186096E+01
          0                 2           2             5    8     1      -0.2284173803E-02       5    8    1        -0.1257158319E+00      0.3239759422E+00
          0                 3           2             4    7     1      -0.5225514121E-01       4    7    1        -0.2804705826E+01      0.6901750046E+01
          0                 4           2             4    7     1       0.5325066857E-01       4    7    1         0.2938019052E+01      0.7196792321E+01
          0                 5           2             4    7     1      -0.8610694993E-02       4    8    1        -0.4883289988E+00      0.1196148325E+01
          0                 6           2             4    7     1      -0.5989234235E-02       4    8    1        -0.3396538151E+00      0.8319783669E+00
          0                 7           1             4    7     1       0.7329188274E-04       5    6    1         0.4271941226E-02      0.1046400989E-01

    ------------------------------------------------
       NWT REQUIRED            7 OUTER ITERATIONS 
       AND A TOTAL OF         13 INNER ITERATIONS.
    ------------------------------------------------

 NO OUTPUT CONTROL FOR STRESS PERIOD   19   TIME STEP   16
 
 SOLVING FOR HEAD 
                                                   Max.-Head-Change                         Max.-Flux-Residual
  Residual-Control   Outer-Iter.   Inner-Iter.     Column Row Layer    Maximum-Head-Change  Column Row Layer    Maximum-Flux-Residual          L2-NORM 
          0                 1           2             5    8     1       0.9911512267E-02       5    8    1         0.5311805764E+00      0.1370040788E+01
          0                 2           2             5    8     1      -0.2304170976E-02       5    8    1        -0.1268329909E+00      0.3264469510E+00
          0                 3           2             4    7     1      -0.5225021859E-01       4    7    1        -0.2804441775E+01      0.6901085523E+01
          0                 4           2             4    7     1       0.5320344104E-01       4    7    1         0.2935413009E+01      0.7190405121E+01
          0                 5           2             4    7     1      -0.2770557157E-02       4    8    1        -0.1571272724E+00      0.3848805593E+00
          0                 6           2             4    7     1      -0.6227451062E-03       5    6    1        -0.3531634175E-01      0.8650699587E-01
          0                 7           2             4    7     1      -0.6541231809E-02       4    8    1        -0.3709541922E+00      0.9086484856E+00
          0                 8           2             4    7     1      -0.4601343962E-02       4    8    1        -0.2609403786E+00      0.6391705913E+00
          0                 9           1             4    7     1       0.5641585217E-04       5    6    1         0.3288227103E-02      0.8054439967E-02

    ------------------------------------------------
       NWT REQUIRED            9 OUTER ITERATIONS 
       AND A TOTAL OF         17 INNER ITERATIONS.
    ------------------------------------------------

 NO OUTPUT CONTROL FOR STRESS PERIOD   19   TIME STEP   17
 
 SOLVING FOR HEAD 
                                                   Max.-Head-Change                         Max.-Flux-Residual
  Residual-Control   Outer-Iter.   Inner-Iter.     Column Row Layer    Maximum-Head-Change  Column Row Layer    Maximum-Flux-Residual          L2-NORM 
          0                 1           2             5    8     1       0.1006981426E-01       5    8    1         0.5398086780E+00      0.1388308211E+01
          0                 2           2             5    8     1      -0.2323437420E-02       5    8    1        -0.1279085536E+00      0.3288562563E+00
          0                 3           2             4    7     1      -0.5224528338E-01       4    7    1        -0.2804176960E+01      0.6900422736E+01
          0                 4           2             4    7     1       0.5320570292E-01       4    7    1         0.2935537446E+01      0.7190706364E+01
          0                 5           2             4    7     1      -0.2769811971E-02       4    8    1        -0.1570849535E+00      0.3847768033E+00
          0                 6           2             4    7     1      -0.6319146685E-02       5    6    1        -0.3583632353E+00      0.8778069989E+00
          0                 7           2             4    7     1      -0.5460095242E-02       4    8    1        -0.3096428149E+00      0.7584667205E+00
          0                 8           1             4    7     1       0.6687598142E-04       5    6    1         0.3897939539E-02      0.9547908150E-02

    ------------------------------------------------
       NWT REQUIRED            8 OUTER ITERATIONS 
       AND A TOTAL OF         15 INNER ITERATIONS.
    ------------------------------------------------

 NO OUTPUT CONTROL FOR STRESS PERIOD   19   TIME STEP   18
 
 SOLVING FOR HEAD 
                                                   Max.-Head-Change                         Max.-Flux-Residual
  Residual-Control   Outer-Iter.   Inner-Iter.     Column Row Layer    Maximum-Head-Change  Column Row Layer    Maximum-Flux-Residual          L2-NORM 
          0                 1           2             5    8     1       0.1022079399E-01       5    8    1         0.5480322293E+00      0.1405995807E+01
          0                 2           2             5    8     1      -0.2342004729E-02       5    8    1        -0.1289443835E+00      0.3312049457E+00
          0                 3           2             4    7     1      -0.5224032108E-01       4    7    1        -0.2803910609E+01      0.6899759617E+01
          0                 4           2             4    7     1       0.5320259583E-01       4    7    1         0.2935365645E+01      0.7190282350E+01
          0                 5           2             4    7     1      -0.8704597558E-02       4    8    1        -0.4936540090E+00      0.1209191751E+01
          0                 6           2             4    7     1      -0.5846383689E-02       4    8    1        -0.3315525329E+00      0.8121343520E+00
          0                 7           1             4    7     1       0.7152778709E-04       5    6    1         0.4169116192E-02      0.1021214421E-01

    ------------------------------------------------
       NWT REQUIRED            7 OUTER ITERATIONS 
       AND A TOTAL OF         13 INNER ITERATIONS.
    ------------------------------------------------

 NO OUTPUT CONTROL FOR STRESS PERIOD   19   TIME STEP   19
 
 SOLVING FOR HEAD 
                                                   Max.-Head-Change                         Max.-Flux-Residual
  Residual-Control   Outer-Iter.   Inner-Iter.     Column Row Layer    Maximum-Head-Change  Column Row Layer    Maximum-Flux-Residual          L2-NORM 
          0                 1           2             5    8     1       0.1036489756E-01       5    8    1         0.5558759905E+00      0.1423112851E+01
          0                 2           2             5    8     1      -0.2359916026E-02       5    8    1        -0.1299429419E+00      0.3334969124E+00
          0                 3           2             4    7     1      -0.5223535195E-01       4    7    1        -0.2803643818E+01      0.6899097868E+01
          0                 4           2             4    7     1       0.5319670876E-01       4    7    1         0.2935040450E+01      0.7189482912E+01
          0                 5           2             4    7     1      -0.8666589978E-02       4    8    1        -0.4914984532E+00      0.1203911721E+01
          0                 6           2             4    7     1      -0.5879203595E-02       4    8    1        -0.3334137249E+00      0.8166933257E+00
          0                 7           1             4    7     1       0.7192183929E-04       5    6    1         0.4192083624E-02      0.1026840192E-01

    ------------------------------------------------
       NWT REQUIRED            7 OUTER ITERATIONS 
       AND A TOTAL OF         13 INNER ITERATIONS.
    ------------------------------------------------

 NO OUTPUT CONTROL FOR STRESS PERIOD   19   TIME STEP   20
 
 SOLVING FOR HEAD 
                                                   Max.-Head-Change                         Max.-Flux-Residual
  Residual-Control   Outer-Iter.   Inner-Iter.     Column Row Layer    Maximum-Head-Change  Column Row Layer    Maximum-Flux-Residual          L2-NORM 
          0                 1           2             5    8     1       0.1050254024E-01       5    8    1         0.5633631116E+00      0.1439684627E+01
          0                 2           2             5    8     1      -0.2377209675E-02       5    8    1        -0.1309064319E+00      0.3357338823E+00
          0                 3           2             4    7     1      -0.5223036065E-01       4    7    1        -0.2803375768E+01      0.6898435737E+01
          0                 4           2             4    7     1       0.5318715262E-01       4    7    1         0.2934512809E+01      0.7188187904E+01
          0                 5           2             4    7     1      -0.8674954521E-02       4    8    1        -0.4919727202E+00      0.1205073398E+01
          0                 6           2             4    7     1      -0.5861374830E-02       4    8    1        -0.3324025973E+00      0.8142165784E+00
          0                 7           1             4    7     1       0.7170268984E-04       5    6    1         0.4179309577E-02      0.1023711236E-01

    ------------------------------------------------
       NWT REQUIRED            7 OUTER ITERATIONS 
       AND A TOTAL OF         13 INNER ITERATIONS.
    ------------------------------------------------

 NO OUTPUT CONTROL FOR STRESS PERIOD   19   TIME STEP   21
 
 SOLVING FOR HEAD 
                                                   Max.-Head-Change                         Max.-Flux-Residual
  Residual-Control   Outer-Iter.   Inner-Iter.     Column Row Layer    Maximum-Head-Change  Column Row Layer    Maximum-Flux-Residual          L2-NORM 
          0                 1           2             5    8     1       0.1063425334E-01       5    8    1         0.5705230966E+00      0.1455717966E+01
          0                 2           2             5    8     1      -0.2393941557E-02       5    8    1        -0.1318380350E+00      0.3379174489E+00
          0                 3           2             4    7     1      -0.5222536235E-01       4    7    1        -0.2803107280E+01      0.6897774857E+01
          0                 4           2             4    7     1       0.5317463198E-01       4    7    1         0.2933821598E+01      0.7186492511E+01
          0                 5           2             4    7     1      -0.8720623975E-02       4    8    1        -0.4945625967E+00      0.1211417230E+01
          0                 6           2             4    7     1      -0.5802761723E-02       4    8    1        -0.3290785638E+00      0.8060743889E+00
          0                 7           1             4    7     1       0.7098908883E-04       5    6    1         0.4137715515E-02      0.1013522949E-01

    ------------------------------------------------
       NWT REQUIRED            7 OUTER ITERATIONS 
       AND A TOTAL OF         13 INNER ITERATIONS.
    ------------------------------------------------

 NO OUTPUT CONTROL FOR STRESS PERIOD   19   TIME STEP   22
 
 SOLVING FOR HEAD 
                                                   Max.-Head-Change                         Max.-Flux-Residual
  Residual-Control   Outer-Iter.   Inner-Iter.     Column Row Layer    Maximum-Head-Change  Column Row Layer    Maximum-Flux-Residual          L2-NORM 
          0                 1           2             5    8     1       0.1076010686E-01       5    8    1         0.5773599100E+00      0.1471239811E+01
          0                 2           2             5    8     1      -0.2410115502E-02       5    8    1        -0.1327379837E+00      0.3400506337E+00
          0                 3           2             4    7     1      -0.5222034255E-01       4    7    1        -0.2802837581E+01      0.6897113464E+01
          0                 4           2             4    7     1       0.5319521952E-01       4    7    1         0.2934957065E+01      0.7189271676E+01
          0                 5           2             4    7     1      -0.8725188859E-02       4    8    1        -0.4948213935E+00      0.1212051107E+01
          0                 6           2             4    7     1      -0.5819297308E-02       4    8    1        -0.3300162604E+00      0.8083712668E+00
          0                 7           1             4    7     1       0.7117692830E-04       5    6    1         0.4148663493E-02      0.1016204609E-01

    ------------------------------------------------
       NWT REQUIRED            7 OUTER ITERATIONS 
       AND A TOTAL OF         13 INNER ITERATIONS.
    ------------------------------------------------

 NO OUTPUT CONTROL FOR STRESS PERIOD   19   TIME STEP   23
 
 SOLVING FOR HEAD 
                                                   Max.-Head-Change                         Max.-Flux-Residual
  Residual-Control   Outer-Iter.   Inner-Iter.     Column Row Layer    Maximum-Head-Change  Column Row Layer    Maximum-Flux-Residual          L2-NORM 
          0                 1           2             5    8     1       0.1088072814E-01       5    8    1         0.5839086701E+00      0.1486263224E+01
          0                 2           2             5    8     1      -0.2425791181E-02       5    8    1        -0.1336097154E+00      0.3421347518E+00
          0                 3           2             4    7     1      -0.5221531788E-01       4    7    1        -0.2802567569E+01      0.6896452969E+01
          0                 4           2             4    7     1       0.5317969207E-01       4    7    1         0.2934078901E+01      0.7187080934E+01
          0                 5           2             4    7     1      -0.2766272694E-02       4    8    1        -0.1585047420E+00      0.3849073613E+00
          0                 6           2             4    7     1      -0.6203006552E-02       5    6    1        -0.3517768295E+00      0.8616650647E+00
          0                 7           2             4    7     1      -0.5556788946E-02       4    8    1        -0.3151263204E+00      0.7718979716E+00
          0                 8           1             4    7     1       0.6802704313E-04       5    6    1         0.3965027061E-02      0.9712237725E-02

    ------------------------------------------------
       NWT REQUIRED            8 OUTER ITERATIONS 
       AND A TOTAL OF         15 INNER ITERATIONS.
    ------------------------------------------------

 NO OUTPUT CONTROL FOR STRESS PERIOD   19   TIME STEP   24
 
 SOLVING FOR HEAD 
                                                   Max.-Head-Change                         Max.-Flux-Residual
  Residual-Control   Outer-Iter.   Inner-Iter.     Column Row Layer    Maximum-Head-Change  Column Row Layer    Maximum-Flux-Residual          L2-NORM 
          0                 1           2             5    8     1       0.1099613853E-01       5    8    1         0.5901703272E+00      0.1500805808E+01
          0                 2           2             5    8     1      -0.2440975003E-02       5    8    1        -0.1344535634E+00      0.3441729071E+00
          0                 3           2             4    7     1      -0.5221028347E-01       4    7    1        -0.2802296985E+01      0.6895793569E+01
          0                 4           2             4    7     1       0.5316450485E-01       4    7    1         0.2933243850E+01      0.7184924803E+01
          0                 5           2             4    7     1      -0.2769561825E-02       4    8    1        -0.1584364179E+00      0.3852596221E+00
          0                 6           2             4    7     1      -0.6264811581E-02       5    7    1        -0.3552834335E+00      0.8702523695E+00
          0                 7           2             4    7     1      -0.5475806646E-02       5    7    1        -0.3105354336E+00      0.7606493759E+00
          0                 8           1             4    7     1       0.6703743342E-04       5    6    1         0.3907346038E-02      0.9571054302E-02

    ------------------------------------------------
       NWT REQUIRED            8 OUTER ITERATIONS 
       AND A TOTAL OF         15 INNER ITERATIONS.
    ------------------------------------------------

 NO OUTPUT CONTROL FOR STRESS PERIOD   19   TIME STEP   25
 
 SOLVING FOR HEAD 
                                                   Max.-Head-Change                         Max.-Flux-Residual
  Residual-Control   Outer-Iter.   Inner-Iter.     Column Row Layer    Maximum-Head-Change  Column Row Layer    Maximum-Flux-Residual          L2-NORM 
          0                 1           2             5    8     1       0.1110664118E-01       5    8    1         0.5961618683E+00      0.1514882643E+01
          0                 2           2             5    8     1      -0.2455690229E-02       5    8    1        -0.1352708839E+00      0.3461647550E+00
          0                 3           2             4    7     1      -0.5220523447E-01       4    7    1        -0.2802025577E+01      0.6895133182E+01
          0                 4           2             4    7     1       0.5317779544E-01       4    7    1         0.2933979921E+01      0.7186627948E+01
          0                 5           2             4    7     1      -0.2759383867E-02       4    8    1        -0.1576111675E+00      0.3837497593E+00
          0                 6           2             4    7     1      -0.6104006904E-02       5    7    1        -0.3461640008E+00      0.8479157443E+00
          0                 7           2             4    7     1      -0.5662715148E-02       5    7    1        -0.3211349287E+00      0.7866128190E+00
          0                 8           1             4    7     1       0.6932595549E-04       5    6    1         0.4040734432E-02      0.9897789863E-02

    ------------------------------------------------
       NWT REQUIRED            8 OUTER ITERATIONS 
       AND A TOTAL OF         15 INNER ITERATIONS.
    ------------------------------------------------

 NO OUTPUT CONTROL FOR STRESS PERIOD   19   TIME STEP   26
 
 SOLVING FOR HEAD 
                                                   Max.-Head-Change                         Max.-Flux-Residual
  Residual-Control   Outer-Iter.   Inner-Iter.     Column Row Layer    Maximum-Head-Change  Column Row Layer    Maximum-Flux-Residual          L2-NORM 
          0                 1           2             5    8     1       0.1121280200E-01       5    8    1         0.6019147494E+00      0.1528521092E+01
          0                 2           2             5    8     1      -0.2469995970E-02       5    8    1        -0.1360650459E+00      0.3481142969E+00
          0                 3           2             4    7     1      -0.5220017505E-01       4    7    1        -0.2801753568E+01      0.6894473068E+01
          0                 4           2             4    7     1       0.5316860432E-01       4    7    1         0.2933475532E+01      0.7185295173E+01
          0                 5           2             4    7     1      -0.2759921045E-02       4    8    1        -0.1573985744E+00      0.3837305128E+00
          0                 6           2             4    7     1      -0.6119892864E-02       5    7    1        -0.3470648107E+00      0.8501235668E+00
          0                 7           2             4    7     1      -0.5637092823E-02       5    7    1        -0.3196818430E+00      0.7830534736E+00
          0                 8           1             4    7     1       0.6900417661E-04       5    6    1         0.4021978630E-02      0.9851847695E-02

    ------------------------------------------------
       NWT REQUIRED            8 OUTER ITERATIONS 
       AND A TOTAL OF         15 INNER ITERATIONS.
    ------------------------------------------------

 NO OUTPUT CONTROL FOR STRESS PERIOD   19   TIME STEP   27
 
 SOLVING FOR HEAD 
                                                   Max.-Head-Change                         Max.-Flux-Residual
  Residual-Control   Outer-Iter.   Inner-Iter.     Column Row Layer    Maximum-Head-Change  Column Row Layer    Maximum-Flux-Residual          L2-NORM 
          0                 1           2             5    8     1       0.1131458374E-01       5    8    1         0.6074267442E+00      0.1541733104E+01
          0                 2           2             5    8     1      -0.2483888737E-02       5    8    1        -0.1368358343E+00      0.3500221556E+00
          0                 3           2             4    7     1      -0.5219511458E-01       4    7    1        -0.2801481465E+01      0.6893814289E+01
          0                 4           2             4    7     1       0.5315650785E-01       4    7    1         0.2932810770E+01      0.7183579287E+01
          0                 5           2             4    7     1      -0.2761896461E-02       4    8    1        -0.1572730213E+00      0.3839228978E+00
          0                 6           2             4    7     1      -0.6159287146E-02       5    6    1        -0.3492987704E+00      0.8555966706E+00
          0                 7           2             4    7     1      -0.5583256439E-02       5    6    1        -0.3166286949E+00      0.7755740682E+00
          0                 8           1             4    7     1       0.6833881409E-04       5    7    1         0.3985046971E-02      0.9758525052E-02

    ------------------------------------------------
       NWT REQUIRED            8 OUTER ITERATIONS 
       AND A TOTAL OF         15 INNER ITERATIONS.
    ------------------------------------------------

 NO OUTPUT CONTROL FOR STRESS PERIOD   19   TIME STEP   28
 
 SOLVING FOR HEAD 
                                                   Max.-Head-Change                         Max.-Flux-Residual
  Residual-Control   Outer-Iter.   Inner-Iter.     Column Row Layer    Maximum-Head-Change  Column Row Layer    Maximum-Flux-Residual          L2-NORM 
          0                 1           2             5    8     1       0.1141188041E-01       5    8    1         0.6127116731E+00      0.1544138459E+01
          0                 2           2             5    8     1      -0.2497353802E-02       5    8    1        -0.1375843846E+00      0.3500723029E+00
          0                 3           2             4    7     1      -0.5219005058E-01       4    7    1        -0.2801209141E+01      0.6890676638E+01
          0                 4           2             4    7     1       0.5124708307E-01       4    7    1         0.2827464978E+01      0.6925439722E+01
          0                 5           2             4    7     1      -0.2668920892E-02       4    8    1        -0.1517064751E+00      0.3708944202E+00
          0                 6           2             4    7     1      -0.5907344534E-02       5    6    1        -0.3350107851E+00      0.8206000629E+00
          0                 7           2             4    7     1      -0.5882434989E-02       5    6    1        -0.3335949886E+00      0.8171329999E+00
          0                 8           1             4    7     1       0.7198189216E-04       5    7    1         0.4198392522E-02      0.1025264634E-01

    ------------------------------------------------
       NWT REQUIRED            8 OUTER ITERATIONS 
       AND A TOTAL OF         15 INNER ITERATIONS.
    ------------------------------------------------

 NO OUTPUT CONTROL FOR STRESS PERIOD   19   TIME STEP   29
 
 SOLVING FOR HEAD 
                                                   Max.-Head-Change                         Max.-Flux-Residual
  Residual-Control   Outer-Iter.   Inner-Iter.     Column Row Layer    Maximum-Head-Change  Column Row Layer    Maximum-Flux-Residual          L2-NORM 
          0                 1           2             5    8     1       0.1156093432E-01       5    8    1         0.6208480681E+00      0.1548717182E+01
          0                 2           2             5    8     1      -0.4457446242E-02       5    8    1        -0.2454198484E+00      0.6054798408E+00
          0                 3           2             4    7     1      -0.4806589365E-01       4    7    1        -0.2579854120E+01      0.6345197993E+01
          0                 4           2             4    7     1       0.4664914190E-01       4    7    1         0.2573786048E+01      0.6303928077E+01
          0                 5           2             4    7     1      -0.2460800752E-02       4    7    1        -0.1395551249E+00      0.3418156158E+00
          0                 6           2             4    7     1      -0.5545028798E-02       4    8    1        -0.3144978168E+00      0.7702830613E+00
          0                 7           2             4    7     1      -0.6320180107E-02       5    8    1        -0.3584186646E+00      0.8779371662E+00
          0                 8           1             4    7     1       0.7733803246E-04       4    7    1         0.4507686334E-02      0.1104194177E-01

    ------------------------------------------------
       NWT REQUIRED            8 OUTER ITERATIONS 
       AND A TOTAL OF         15 INNER ITERATIONS.
    ------------------------------------------------

 NO OUTPUT CONTROL FOR STRESS PERIOD   19   TIME STEP   30



 STREAM LISTING     PERIOD     19   STEP       30

 LAYER ROW COL. STREAM  RCH.  FLOW INTO     FLOW TO   FLOW OUT OF   OVRLND.     DIRECT     STREAM       STREAM     STREAM     STREAM   STREAMBED  STREAMBED
                SEG.NO.  NO.  STRM. RCH.    AQUIFER    STRM. RCH.    RUNOFF     PRECIP       ET          HEAD       DEPTH      WIDTH   CONDCTNC.   GRADIENT

   1    1    1     1     1    2.0250E+01  2.2212E-01   2.0028E+01  0.000E+00  0.000E+00  0.000E+00  1.09415E+03  1.102E+00  1.203E+01  5.414E-02  1.367E+00
   1    2    2     1     2    2.0028E+01  3.4298E-01   1.9685E+01  0.000E+00  0.000E+00  0.000E+00  1.08916E+03  1.098E+00  1.196E+01  8.370E-02  1.366E+00
   1    3    3     1     3    1.9685E+01  2.9127E-01   1.9394E+01  0.000E+00  0.000E+00  0.000E+00  1.08351E+03  1.093E+00  1.186E+01  7.117E-02  1.364E+00
   1    3    4     1     4    1.9394E+01  2.6721E-01   1.9127E+01  0.000E+00  0.000E+00  0.000E+00  1.07850E+03  1.088E+00  1.178E+01  6.536E-02  1.363E+00
   1    4    5     2     1    1.7127E+01  3.0866E-01   1.6818E+01  0.000E+00  0.000E+00  0.000E+00  1.07289E+03  9.572E-01  1.200E+01  7.800E-02  1.319E+00
   1    5    6     2     2    1.6818E+01  2.3687E-01   1.6581E+01  0.000E+00  0.000E+00  0.000E+00  1.06746E+03  9.479E-01  1.200E+01  6.000E-02  1.316E+00
   1    6    6     2     3    1.6581E+01  2.3639E-01   1.6345E+01  0.000E+00  0.000E+00  0.000E+00  1.06273E+03  9.398E-01  1.200E+01  6.000E-02  1.313E+00
   1    7    6     2     4    1.6345E+01  2.3590E-01   1.6109E+01  0.000E+00  0.000E+00  0.000E+00  1.05801E+03  9.317E-01  1.200E+01  6.000E-02  1.311E+00
   1    8    6     2     5    1.6109E+01  2.3541E-01   1.5873E+01  0.000E+00  0.000E+00  0.000E+00  1.05328E+03  9.236E-01  1.200E+01  6.000E-02  1.308E+00
   1    3    5     3     1    2.0000E+00  2.8252E-01   1.7175E+00  0.000E+00  0.000E+00  0.000E+00  1.07555E+03  1.909E+00  9.636E+00  7.227E-02  1.955E+00
   1    3    6     3     2    1.7175E+00  2.4905E-01   1.4684E+00  0.000E+00  0.000E+00  0.000E+00  1.07264E+03  1.727E+00  8.909E+00  6.682E-02  1.864E+00
   1    3    7     3     3    1.4684E+00  1.9718E-01   1.2712E+00  0.000E+00  0.000E+00  0.000E+00  1.06987E+03  1.555E+00  8.218E+00  5.547E-02  1.777E+00
   1    4    8     3     4    1.2712E+00  2.2567E-01   1.0456E+00  0.000E+00  0.000E+00  0.000E+00  1.06682E+03  1.364E+00  7.455E+00  6.709E-02  1.682E+00
   1    5    8     3     5    1.0456E+00  1.5790E-01   8.8768E-01  0.000E+00  0.000E+00  0.000E+00  1.06362E+03  1.164E+00  6.655E+00  4.991E-02  1.582E+00
   1    6    8     3     6    8.8768E-01  5.5980E-02   8.3170E-01  0.000E+00  0.000E+00  0.000E+00  1.06158E+03  1.036E+00  6.145E+00  1.844E-02  1.518E+00
   1    5   10     4     1    1.0000E+01  9.0919E-02   9.9091E+00  0.000E+00  0.000E+00  0.000E+00  1.07836E+03  6.368E-01  1.000E+01  2.500E-02  1.212E+00
   1    5    9     4     2    9.9091E+00  1.8158E-01   9.7275E+00  0.000E+00  0.000E+00  0.000E+00  1.07154E+03  6.315E-01  1.000E+01  5.000E-02  1.211E+00
   1    6    8     4     3    9.7275E+00  1.2689E-01   9.6006E+00  0.000E+00  0.000E+00  0.000E+00  1.06381E+03  6.256E-01  1.000E+01  3.500E-02  1.209E+00
   1    6    8     5     1    1.0432E+01  2.2686E-01   1.0205E+01  0.000E+00  0.000E+00  0.000E+00  1.05868E+03  6.790E-01  1.542E+01  6.166E-02  1.226E+00
   1    7    7     5     2    1.0205E+01  2.7894E-01   9.9265E+00  0.000E+00  0.000E+00  0.000E+00  1.05417E+03  6.732E-01  1.519E+01  7.594E-02  1.224E+00
   1    8    7     5     3    9.9265E+00  1.9221E-01   9.7343E+00  0.000E+00  0.000E+00  0.000E+00  1.04992E+03  6.676E-01  1.497E+01  5.241E-02  1.223E+00
   1    8    6     5     4    9.7343E+00  1.3577E-01   9.5985E+00  0.000E+00  0.000E+00  0.000E+00  1.04691E+03  6.637E-01  1.482E+01  3.706E-02  1.221E+00
   1    9    6     6     1    9.5985E+00  2.2097E-01   9.3776E+00  0.000E+00  0.000E+00  0.000E+00  1.04341E+03  6.828E-01  1.200E+01  6.000E-02  1.228E+00
   1   10    7     6     2    9.3776E+00  2.2039E-01   9.1572E+00  0.000E+00  0.000E+00  0.000E+00  1.03885E+03  6.732E-01  1.200E+01  6.000E-02  1.224E+00
   1   11    7     6     3    9.1572E+00  2.1981E-01   8.9374E+00  0.000E+00  0.000E+00  0.000E+00  1.03430E+03  6.636E-01  1.200E+01  6.000E-02  1.221E+00
   1   12    7     6     4    8.9374E+00  2.1923E-01   8.7181E+00  0.000E+00  0.000E+00  0.000E+00  1.02974E+03  6.539E-01  1.200E+01  6.000E-02  1.218E+00
   1   13    7     6     5    8.7181E+00 -3.3293E-02   8.7514E+00  0.000E+00  0.000E+00  0.000E+00  1.02656E+03  6.497E-01  1.200E+01  2.400E-01 -4.624E-02
   1   14    9     7     1    1.5000E+02  1.3734E+00   1.4863E+02  0.000E+00  0.000E+00  0.000E+00  1.03987E+03  2.288E+00  5.529E+01  5.593E-01  8.185E-01
   1   13    8     7     2    1.4863E+02  1.9505E+00   1.4668E+02  0.000E+00  0.000E+00  0.000E+00  1.03478E+03  2.279E+00  5.525E+01  6.147E-01  1.058E+00
   1   13    7     7     3    1.4668E+02  1.6701E+00   1.4501E+02  0.000E+00  0.000E+00  0.000E+00  1.02969E+03  2.269E+00  5.521E+01  5.584E-01  9.970E-01
   1   13    6     8     1    1.5376E+02  1.0270E+00   1.5273E+02  0.000E+00  0.000E+00  0.000E+00  1.02471E+03  2.840E+00  4.117E+01  4.196E-01  8.159E-01
   1   13    5     8     2    1.5273E+02  2.9029E-01   1.5244E+02  0.000E+00  0.000E+00  0.000E+00  1.01846E+03  2.835E+00  4.111E+01  4.189E-01  2.310E-01
   1   13    4     8     3    1.5244E+02 -2.0202E+00   1.5446E+02  0.000E+00  0.000E+00  0.000E+00  1.01222E+03  2.841E+00  4.119E+01  4.198E+00 -1.604E-01
   1   13    3     8     4    1.5446E+02 -3.4533E+00   1.5791E+02  0.000E+00  0.000E+00  0.000E+00  1.00598E+03  2.860E+00  4.147E+01  4.226E+00 -2.724E-01
   1   13    2     8     5    1.5791E+02 -2.5632E+00   1.6048E+02  0.000E+00  0.000E+00  0.000E+00  9.99755E+02  2.880E+00  4.177E+01  4.256E+00 -2.007E-01
   1   13    1     8     6    1.6048E+02 -2.0097E+00   1.6249E+02  0.000E+00  0.000E+00  0.000E+00  9.94771E+02  2.896E+00  4.199E+01  2.567E+00 -2.609E-01
   1    8    6     9     1    1.5873E+01  0.0000E+00   1.5873E+01  0.000E+00  0.000E+00  0.000E+00  1.08174E+03  2.990E+00  4.000E+00  0.000E+00  1.997E+00
   1    8    5     9     2    1.5873E+01  0.0000E+00   1.5873E+01  0.000E+00  0.000E+00  0.000E+00  1.08124E+03  2.990E+00  4.000E+00  0.000E+00  1.997E+00





UNSATURATED ZONE PACKAGE VOLUMETRIC BUDGET FOR  TIME STEP    30 STRESS PERIOD   19
  ------------------------------------------------------------------------------



     CUMULATIVE VOLUMES      L**3       RATES FOR THIS TIME STEP      L**3/T
     ------------------                 ------------------------

           IN:                                      IN:
           ---                                      ---
        INFILTRATION =   754099712.5102          INFILTRATION =          23.3167

          OUT:                                     OUT:
          ----                                     ----
              UZF ET =   531900520.4028                UZF ET =          23.3175
        UZF RECHARGE =       73224.0000          UZF RECHARGE =       0.0000E+00

            IN - OUT =   222125968.1074              IN - OUT =      -7.9536E-04

          STORAGE:                                 STORAGE:
          --------                                 --------
      STORAGE CHANGE =   222126177.1309        STORAGE CHANGE =      -7.9427E-04

 PERCENT DISCREPANCY IS DIFFERENCE BETWEEN IN-OUT MINUS CHANGE IN STORAGE
 DIVIDED BY THE AVERAGE OF IN AND OUT TIMES 100

 PERCENT DISCREPANCY =          -0.00     PERCENT DISCREPANCY =          -0.00






1
  VOLUMETRIC BUDGET FOR AGRICULTURAL FIELDS AT  END OF TIME STEP   30, STRESS PERIOD  19
  ------------------------------------------------------------------------------

     CUMULATIVE VOLUMES      L**3       RATES FOR THIS TIME STEP      L**3/T
     ------------------                 ------------------------

           IN:                                      IN:
           ---                                      ---
               AG WELLS  =   420409984.0000                 AG WELLS  =           6.5954
      DIVERSION SEGMENTS =   293572064.0000        DIVERSION SEGMENTS =          15.8735
       IRRIGATION PONDS  =           0.0000         IRRIGATION PONDS  =           0.0000
           GW IRRIGATION =           0.0000             GW IRRIGATION =           0.0000
           SW IRRIGATION =           0.0000             SW IRRIGATION =           0.0000
        SYSTEM LOSSES GW =           0.0000          SYSTEM LOSSES GW =           0.0000
        SYSTEM LOSSES SW =           0.0000          SYSTEM LOSSES SW =           0.0000

                TOTAL IN =   713982080.0000                  TOTAL IN =          22.4689

          OUT:                                     OUT:
          ----                                     ----
               AG WELLS  =           0.0000                 AG WELLS  =           0.0000
      DIVERSION SEGMENTS =           0.0000        DIVERSION SEGMENTS =           0.0000
       IRRIGATION PONDS  =           0.0000         IRRIGATION PONDS  =           0.0000
           GW IRRIGATION =   420409984.0000             GW IRRIGATION =           6.5954
           SW IRRIGATION =   293577856.0000             SW IRRIGATION =          15.8738
        SYSTEM LOSSES GW =           0.0000          SYSTEM LOSSES GW =           0.0000
        SYSTEM LOSSES SW =           0.0000          SYSTEM LOSSES SW =           0.0000

               TOTAL OUT =   713987840.0000                 TOTAL OUT =          22.4692

                IN - OUT =       -5760.0000                  IN - OUT =      -3.1662E-04

     PERCENT DISCREPANCY =          -0.00         PERCENT DISCREPANCY =          -0.00



1
  VOLUMETRIC BUDGET FOR ENTIRE MODEL AT END OF TIME STEP   30, STRESS PERIOD  19
  ------------------------------------------------------------------------------

     CUMULATIVE VOLUMES      L**3       RATES FOR THIS TIME STEP      L**3/T
     ------------------                 ------------------------

           IN:                                      IN:
           ---                                      ---
             STORAGE     =   693013056.0000               STORAGE     =           5.6120
       CONSTANT HEAD     =           0.0000         CONSTANT HEAD     =           0.0000
     HEAD DEP BOUNDS     =    13659450.0000       HEAD DEP BOUNDS     =           0.2883
      STREAM LEAKAGE     =   560463552.0000        STREAM LEAKAGE     =          11.9700
        UZF RECHARGE     =       73223.9531          UZF RECHARGE     =           0.0000
               GW ET     =           0.0000                 GW ET     =           0.0000
     SURFACE LEAKAGE     =           0.0000       SURFACE LEAKAGE     =           0.0000
           AG WELLS      =           0.0000             AG WELLS      =           0.0000

                TOTAL IN =  1267209216.0000                  TOTAL IN =          17.8703

          OUT:                                     OUT:
          ----                                     ----
             STORAGE     =   349841280.0000               STORAGE     =           0.9079
       CONSTANT HEAD     =           0.0000         CONSTANT HEAD     =           0.0000
     HEAD DEP BOUNDS     =    13666893.0000       HEAD DEP BOUNDS     =           0.2870
      STREAM LEAKAGE     =   483296064.0000        STREAM LEAKAGE     =          10.0797
        UZF RECHARGE     =           0.0000          UZF RECHARGE     =           0.0000
               GW ET     =           0.0000                 GW ET     =           0.0000
     SURFACE LEAKAGE     =           0.0000       SURFACE LEAKAGE     =           0.0000
           AG WELLS      =   420409984.0000             AG WELLS      =           6.5954

               TOTAL OUT =  1267214208.0000                 TOTAL OUT =          17.8700

                IN - OUT =       -4992.0000                  IN - OUT =       3.8338E-04

     PERCENT DISCREPANCY =          -0.00         PERCENT DISCREPANCY =           0.00






         TIME SUMMARY AT END OF TIME STEP   30 IN STRESS PERIOD   19
                    SECONDS     MINUTES      HOURS       DAYS        YEARS
                    -----------------------------------------------------------
   TIME STEP LENGTH  87667.      1461.1      24.352      1.0147     2.77799E-03
 STRESS PERIOD TIME 2.63000E+06  43833.      730.56      30.440     8.33397E-02
         TOTAL TIME 4.74265E+07 7.90442E+05  13174.      548.92      1.5029    
1
1
                            STRESS PERIOD NO.   20, LENGTH =   2630000.    
                            -----------------------------------------------

                              NUMBER OF TIME STEPS =    30

                               MULTIPLIER FOR DELT =     1.000

                            INITIAL TIME STEP SIZE =   87666.66    

 REUSING NON-PARAMETER GHB CELLS FROM LAST STRESS PERIOD

      2 GHB CELLS

 REUSING STREAM SEGMENT DATA FROM LAST STRESS PERIOD



            AREAL INFILTRATION RATE
 READING ON UNIT   19 WITH FORMAT: (FREE)              

            1           2           3           4           5           6           7           8           9          10
 ........................................................................................................................
   1   1.0000E-10  2.0000E-10   0.000       0.000       0.000       0.000       0.000       0.000       0.000       0.000    
   2   2.0000E-10  1.0000E-10  2.0000E-10   0.000       0.000      8.0000E-10  8.0000E-10  5.0000E-10   0.000       0.000    
   3    0.000      5.0000E-10  1.0000E-10  1.0000E-10  8.0000E-10  8.0000E-10  5.0000E-10  5.0000E-10   0.000       0.000    
   4   8.0000E-10  5.0000E-10  1.0000E-10  1.0000E-10  1.0000E-10  1.0000E-10  1.0000E-10  1.0000E-10  2.0000E-10   0.000    
   5   8.0000E-10  5.0000E-10  1.0000E-10  1.0000E-10  1.0000E-10  1.0000E-10  1.0000E-10  1.0000E-10  1.0000E-10  1.0000E-10
   6   8.0000E-10  5.0000E-10  5.0000E-10  2.0000E-10  2.0000E-10  1.0000E-10  1.0000E-10  1.0000E-10  1.0000E-10  5.0000E-10
   7   8.0000E-10  5.0000E-10  5.0000E-10  2.0000E-10  2.0000E-10  1.0000E-10  1.0000E-10  2.0000E-10  2.0000E-10   0.000    
   8    0.000      5.0000E-10  5.0000E-10  2.0000E-10  2.0000E-10  1.0000E-10  1.0000E-10  2.0000E-10  5.0000E-10   0.000    
   9    0.000      5.0000E-10  5.0000E-10  2.0000E-10  2.0000E-10  1.0000E-10  1.0000E-10  2.0000E-10  5.0000E-10   0.000    
  10    0.000      5.0000E-10  5.0000E-10  2.0000E-10  2.0000E-10  1.0000E-10  1.0000E-10  2.0000E-10  5.0000E-10  8.0000E-10
  11    0.000      1.0000E-10  1.0000E-10  1.0000E-10  1.0000E-10  1.0000E-10  1.0000E-10  2.0000E-10  5.0000E-10   0.000    
  12   1.0000E-10  1.0000E-10  1.0000E-10  1.0000E-10  1.0000E-10  1.0000E-10  1.0000E-10  1.0000E-10  2.0000E-10   0.000    
  13   1.0000E-10  1.0000E-10  2.0000E-10  2.0000E-10  2.0000E-10  2.0000E-10  2.0000E-10  1.0000E-10  1.0000E-10   0.000    
  14    0.000      2.0000E-10  5.0000E-10  5.0000E-10  5.0000E-10  5.0000E-10  5.0000E-10  2.0000E-10  1.0000E-10   0.000    
  15    0.000       0.000      8.0000E-10  8.0000E-10  8.0000E-10  8.0000E-10   0.000       0.000       0.000       0.000    

                  ET RATE =  4.000000E-07

 USING ET EXTINCTION DEPTH FROM PREVIOUS STRESS PERIOD. CURRENT PERIOD IS:      20

 USING EXTINCTION WATER CONTENT FROM PREVIOUS STRESS PERIOD. CURRENT PERIOD IS:      20

 USING AIR ENTRY PRESSURE FROM PREVIOUS STRESS PERIOD. CURRENT PERIOD IS:      20

 USING ROOT PRESSURE HEAD FROM PREVIOUS STRESS PERIOD. CURRENT PERIOD IS:      20

 USING ROOT ACTIVITY FROM PREVIOUS STRESS PERIOD. CURRENT PERIOD IS:      20

 PROCESSING AG STRESS PERIOD DATA

 READING AG STRESS PERIOD DATA

 READING IRRIGATION SEGMENT

 READING IRRIGATION WELL

 READING SUPPLEMENTAL WELL

 NO IRRPOND OR REUSING IRRPOND DATA FROM LAST STRESS PERIOD

 END PROCESSING AG STRESS PERIOD DATA OPTIONS
 
 SOLVING FOR HEAD 
                                                   Max.-Head-Change                         Max.-Flux-Residual
  Residual-Control   Outer-Iter.   Inner-Iter.     Column Row Layer    Maximum-Head-Change  Column Row Layer    Maximum-Flux-Residual          L2-NORM 
          0                 1           2             5    8     1       0.1177307053E-01       5    8    1         0.6324522218E+00      0.1472219326E+01
          0                 2           2             4    7     1      -0.2603167720E+00       5    8    1        -0.1398504620E+02      0.3424324021E+02
          0                 3           2             4    7     1       0.1772619864E-01       5    6    1         0.9787329905E+00      0.2396680179E+01
          0                 4           2             4    7     1      -0.7053439781E-03       5    6    1        -0.4001375332E-01      0.9802351908E-01
          0                 5           1             4    7     1       0.8697193999E-05       4    7    1         0.5069210301E-03      0.1247335286E-02

    ------------------------------------------------
       NWT REQUIRED            5 OUTER ITERATIONS 
       AND A TOTAL OF          9 INNER ITERATIONS.
    ------------------------------------------------

 OUTPUT CONTROL FOR STRESS PERIOD   20   TIME STEP    1
    PRINT BUDGET
    SAVE BUDGET
    SAVE BUDGET
    SAVE HEAD FOR ALL LAYERS
 UBDSV1 SAVING "         STORAGE" ON UNIT 102 AT TIME STEP 1, STRESS PERIOD 20
 UBDSV2 SAVING "   CONSTANT HEAD" ON UNIT 102 AT TIME STEP 1, STRESS PERIOD 20
 UBDSV1 SAVING "FLOW RIGHT FACE " ON UNIT 102 AT TIME STEP 1, STRESS PERIOD 20
 UBDSV1 SAVING "FLOW FRONT FACE " ON UNIT 102 AT TIME STEP 1, STRESS PERIOD 20

  HEAD DEP BOUNDS   PERIOD   20   STEP     1
 BOUNDARY      1   LAYER   1   ROW    13   COL     1   RATE   -0.287008    
 BOUNDARY      2   LAYER   1   ROW    14   COL     9   RATE    0.288321    



 STREAM LISTING     PERIOD     20   STEP        1

 LAYER ROW COL. STREAM  RCH.  FLOW INTO     FLOW TO   FLOW OUT OF   OVRLND.     DIRECT     STREAM       STREAM     STREAM     STREAM   STREAMBED  STREAMBED
                SEG.NO.  NO.  STRM. RCH.    AQUIFER    STRM. RCH.    RUNOFF     PRECIP       ET          HEAD       DEPTH      WIDTH   CONDCTNC.   GRADIENT

   1    1    1     1     1    2.0250E+01  2.2212E-01   2.0028E+01  0.000E+00  0.000E+00  0.000E+00  1.09415E+03  1.102E+00  1.203E+01  5.414E-02  1.367E+00
   1    2    2     1     2    2.0028E+01  3.4298E-01   1.9685E+01  0.000E+00  0.000E+00  0.000E+00  1.08916E+03  1.098E+00  1.196E+01  8.370E-02  1.366E+00
   1    3    3     1     3    1.9685E+01  2.9127E-01   1.9394E+01  0.000E+00  0.000E+00  0.000E+00  1.08351E+03  1.093E+00  1.186E+01  7.117E-02  1.364E+00
   1    3    4     1     4    1.9394E+01  2.6721E-01   1.9127E+01  0.000E+00  0.000E+00  0.000E+00  1.07850E+03  1.088E+00  1.178E+01  6.536E-02  1.363E+00
   1    4    5     2     1    1.7127E+01  3.0866E-01   1.6818E+01  0.000E+00  0.000E+00  0.000E+00  1.07289E+03  9.572E-01  1.200E+01  7.800E-02  1.319E+00
   1    5    6     2     2    1.6818E+01  2.3687E-01   1.6581E+01  0.000E+00  0.000E+00  0.000E+00  1.06746E+03  9.479E-01  1.200E+01  6.000E-02  1.316E+00
   1    6    6     2     3    1.6581E+01  2.3639E-01   1.6345E+01  0.000E+00  0.000E+00  0.000E+00  1.06273E+03  9.398E-01  1.200E+01  6.000E-02  1.313E+00
   1    7    6     2     4    1.6345E+01  2.3590E-01   1.6109E+01  0.000E+00  0.000E+00  0.000E+00  1.05801E+03  9.317E-01  1.200E+01  6.000E-02  1.311E+00
   1    8    6     2     5    1.6109E+01  2.3541E-01   1.5873E+01  0.000E+00  0.000E+00  0.000E+00  1.05328E+03  9.236E-01  1.200E+01  6.000E-02  1.308E+00
   1    3    5     3     1    2.0000E+00  2.8252E-01   1.7175E+00  0.000E+00  0.000E+00  0.000E+00  1.07555E+03  1.909E+00  9.636E+00  7.227E-02  1.955E+00
   1    3    6     3     2    1.7175E+00  2.4905E-01   1.4684E+00  0.000E+00  0.000E+00  0.000E+00  1.07264E+03  1.727E+00  8.909E+00  6.682E-02  1.864E+00
   1    3    7     3     3    1.4684E+00  1.9718E-01   1.2712E+00  0.000E+00  0.000E+00  0.000E+00  1.06987E+03  1.555E+00  8.218E+00  5.547E-02  1.777E+00
   1    4    8     3     4    1.2712E+00  2.2567E-01   1.0456E+00  0.000E+00  0.000E+00  0.000E+00  1.06682E+03  1.364E+00  7.455E+00  6.709E-02  1.682E+00
   1    5    8     3     5    1.0456E+00  1.5790E-01   8.8768E-01  0.000E+00  0.000E+00  0.000E+00  1.06362E+03  1.164E+00  6.655E+00  4.991E-02  1.582E+00
   1    6    8     3     6    8.8768E-01  5.5980E-02   8.3170E-01  0.000E+00  0.000E+00  0.000E+00  1.06158E+03  1.036E+00  6.145E+00  1.844E-02  1.518E+00
   1    5   10     4     1    1.0000E+01  9.0919E-02   9.9091E+00  0.000E+00  0.000E+00  0.000E+00  1.07836E+03  6.368E-01  1.000E+01  2.500E-02  1.212E+00
   1    5    9     4     2    9.9091E+00  1.8158E-01   9.7275E+00  0.000E+00  0.000E+00  0.000E+00  1.07154E+03  6.315E-01  1.000E+01  5.000E-02  1.211E+00
   1    6    8     4     3    9.7275E+00  1.2689E-01   9.6006E+00  0.000E+00  0.000E+00  0.000E+00  1.06381E+03  6.256E-01  1.000E+01  3.500E-02  1.209E+00
   1    6    8     5     1    1.0432E+01  2.2686E-01   1.0205E+01  0.000E+00  0.000E+00  0.000E+00  1.05868E+03  6.790E-01  1.542E+01  6.166E-02  1.226E+00
   1    7    7     5     2    1.0205E+01  2.7894E-01   9.9265E+00  0.000E+00  0.000E+00  0.000E+00  1.05417E+03  6.732E-01  1.519E+01  7.594E-02  1.224E+00
   1    8    7     5     3    9.9265E+00  1.9221E-01   9.7343E+00  0.000E+00  0.000E+00  0.000E+00  1.04992E+03  6.676E-01  1.497E+01  5.241E-02  1.223E+00
   1    8    6     5     4    9.7343E+00  1.3577E-01   9.5985E+00  0.000E+00  0.000E+00  0.000E+00  1.04691E+03  6.637E-01  1.482E+01  3.706E-02  1.221E+00
   1    9    6     6     1    9.5985E+00  2.2097E-01   9.3776E+00  0.000E+00  0.000E+00  0.000E+00  1.04341E+03  6.828E-01  1.200E+01  6.000E-02  1.228E+00
   1   10    7     6     2    9.3776E+00  2.2039E-01   9.1572E+00  0.000E+00  0.000E+00  0.000E+00  1.03885E+03  6.732E-01  1.200E+01  6.000E-02  1.224E+00
   1   11    7     6     3    9.1572E+00  2.1981E-01   8.9374E+00  0.000E+00  0.000E+00  0.000E+00  1.03430E+03  6.636E-01  1.200E+01  6.000E-02  1.221E+00
   1   12    7     6     4    8.9374E+00  2.1923E-01   8.7181E+00  0.000E+00  0.000E+00  0.000E+00  1.02974E+03  6.539E-01  1.200E+01  6.000E-02  1.218E+00
   1   13    7     6     5    8.7181E+00 -3.3091E-02   8.7512E+00  0.000E+00  0.000E+00  0.000E+00  1.02656E+03  6.497E-01  1.200E+01  2.400E-01 -4.596E-02
   1   14    9     7     1    1.5000E+02  1.3735E+00   1.4863E+02  0.000E+00  0.000E+00  0.000E+00  1.03987E+03  2.288E+00  5.529E+01  5.593E-01  8.186E-01
   1   13    8     7     2    1.4863E+02  1.9507E+00   1.4668E+02  0.000E+00  0.000E+00  0.000E+00  1.03478E+03  2.279E+00  5.525E+01  6.147E-01  1.058E+00
   1   13    7     7     3    1.4668E+02  1.6706E+00   1.4501E+02  0.000E+00  0.000E+00  0.000E+00  1.02969E+03  2.269E+00  5.521E+01  5.584E-01  9.973E-01
   1   13    6     8     1    1.5376E+02  1.0275E+00   1.5273E+02  0.000E+00  0.000E+00  0.000E+00  1.02471E+03  2.840E+00  4.117E+01  4.196E-01  8.163E-01
   1   13    5     8     2    1.5273E+02  2.9070E-01   1.5244E+02  0.000E+00  0.000E+00  0.000E+00  1.01846E+03  2.835E+00  4.111E+01  4.189E-01  2.313E-01
   1   13    4     8     3    1.5244E+02 -2.0181E+00   1.5446E+02  0.000E+00  0.000E+00  0.000E+00  1.01222E+03  2.841E+00  4.119E+01  4.198E+00 -1.602E-01
   1   13    3     8     4    1.5446E+02 -3.4513E+00   1.5791E+02  0.000E+00  0.000E+00  0.000E+00  1.00598E+03  2.860E+00  4.147E+01  4.226E+00 -2.722E-01
   1   13    2     8     5    1.5791E+02 -2.5610E+00   1.6047E+02  0.000E+00  0.000E+00  0.000E+00  9.99755E+02  2.880E+00  4.176E+01  4.256E+00 -2.006E-01
   1   13    1     8     6    1.6047E+02 -2.0078E+00   1.6248E+02  0.000E+00  0.000E+00  0.000E+00  9.94771E+02  2.896E+00  4.199E+01  2.567E+00 -2.607E-01
   1    8    6     9     1    1.5873E+01  0.0000E+00   1.5873E+01  0.000E+00  0.000E+00  0.000E+00  1.08174E+03  2.990E+00  4.000E+00  0.000E+00  1.997E+00
   1    8    5     9     2    1.5873E+01  0.0000E+00   1.5873E+01  0.000E+00  0.000E+00  0.000E+00  1.08124E+03  2.990E+00  4.000E+00  0.000E+00  1.997E+00



 UBDSV3 SAVING "           GW ET" ON UNIT  61 AT TIME STEP 1, STRESS PERIOD 20
 UBDSV3 SAVING "    UZF RECHARGE" ON UNIT  61 AT TIME STEP 1, STRESS PERIOD 20
 UBDSV3 SAVING " SURFACE LEAKAGE" ON UNIT  61 AT TIME STEP 1, STRESS PERIOD 20
 UBDSV3 SAVING "       HORT+DUNN" ON UNIT  61 AT TIME STEP 1, STRESS PERIOD 20
 UBDSV3 SAVING "  STORAGE CHANGE" ON UNIT  61 AT TIME STEP 1, STRESS PERIOD 20


UNSATURATED ZONE PACKAGE VOLUMETRIC BUDGET FOR  TIME STEP     1 STRESS PERIOD   20
  ------------------------------------------------------------------------------



     CUMULATIVE VOLUMES      L**3       RATES FOR THIS TIME STEP      L**3/T
     ------------------                 ------------------------

           IN:                                      IN:
           ---                                      ---
        INFILTRATION =   762888480.7561          INFILTRATION =         100.2521

          OUT:                                     OUT:
          ----                                     ----
              UZF ET =   537232187.6487                UZF ET =          60.8175
        UZF RECHARGE =       73224.0000          UZF RECHARGE =       0.0000E+00

            IN - OUT =   225583069.1074              IN - OUT =          39.4346

          STORAGE:                                 STORAGE:
          --------                                 --------
      STORAGE CHANGE =   225583278.2334        STORAGE CHANGE =          39.4346

 PERCENT DISCREPANCY IS DIFFERENCE BETWEEN IN-OUT MINUS CHANGE IN STORAGE
 DIVIDED BY THE AVERAGE OF IN AND OUT TIMES 100

 PERCENT DISCREPANCY =          -0.00     PERCENT DISCREPANCY =           0.00






 

            AG WELLS      PERIOD   20   STEP   1
 AG WELL      1   LAYER   1   ROW     6   COL     4   RATE    -13.9218    
 AG WELL      2   LAYER   1   ROW     6   COL     5   RATE    -13.9218    
 AG WELL      3   LAYER   1   ROW     7   COL     4   RATE    -13.9218    
 AG WELL      4   LAYER   1   ROW     7   COL     5   RATE    -13.9218    
 AG WELL      5   LAYER   1   ROW     8   COL     4   RATE    -13.9218    
 AG WELL      6   LAYER   1   ROW     8   COL     5   RATE    -13.9218    
 
 

   DIVERSION SEGMENTS     PERIOD   20   STEP   1
 SEGMENT      9   RATE     15.8735    
 
 

        SW IRRIGATION     PERIOD   20   STEP   1
 SEGMENT      9   ROW     6   COL     4   RATE     2.64564    
 SEGMENT      9   ROW     6   COL     5   RATE     2.64564    
 SEGMENT      9   ROW     7   COL     4   RATE     2.64564    
 SEGMENT      9   ROW     7   COL     5   RATE     2.64564    
 SEGMENT      9   ROW     8   COL     4   RATE     2.64564    
 SEGMENT      9   ROW     8   COL     5   RATE     2.64564    
 
 

        GW IRRIGATION     PERIOD   20   STEP   1
 AG WELL      1   ROW     6   COL     4   RATE     13.9218    
 AG WELL      2   ROW     6   COL     5   RATE     13.9218    
 AG WELL      3   ROW     7   COL     4   RATE     13.9218    
 AG WELL      4   ROW     7   COL     5   RATE     13.9218    
 AG WELL      5   ROW     8   COL     4   RATE     13.9218    
 AG WELL      6   ROW     8   COL     5   RATE     13.9218    
 
1
  VOLUMETRIC BUDGET FOR AGRICULTURAL FIELDS AT  END OF TIME STEP    1, STRESS PERIOD  20
  ------------------------------------------------------------------------------

     CUMULATIVE VOLUMES      L**3       RATES FOR THIS TIME STEP      L**3/T
     ------------------                 ------------------------

           IN:                                      IN:
           ---                                      ---
               AG WELLS  =   427732864.0000                 AG WELLS  =          83.5308
      DIVERSION SEGMENTS =   294963648.0000        DIVERSION SEGMENTS =          15.8735
       IRRIGATION PONDS  =           0.0000         IRRIGATION PONDS  =           0.0000
           GW IRRIGATION =           0.0000             GW IRRIGATION =           0.0000
           SW IRRIGATION =           0.0000             SW IRRIGATION =           0.0000
        SYSTEM LOSSES GW =           0.0000          SYSTEM LOSSES GW =           0.0000
        SYSTEM LOSSES SW =           0.0000          SYSTEM LOSSES SW =           0.0000

                TOTAL IN =   722696512.0000                  TOTAL IN =          99.4043

          OUT:                                     OUT:
          ----                                     ----
               AG WELLS  =           0.0000                 AG WELLS  =           0.0000
      DIVERSION SEGMENTS =           0.0000        DIVERSION SEGMENTS =           0.0000
       IRRIGATION PONDS  =           0.0000         IRRIGATION PONDS  =           0.0000
           GW IRRIGATION =   427732864.0000             GW IRRIGATION =          83.5308
           SW IRRIGATION =   294969472.0000             SW IRRIGATION =          15.8738
        SYSTEM LOSSES GW =           0.0000          SYSTEM LOSSES GW =           0.0000
        SYSTEM LOSSES SW =           0.0000          SYSTEM LOSSES SW =           0.0000

               TOTAL OUT =   722702336.0000                 TOTAL OUT =          99.4046

                IN - OUT =       -5824.0000                  IN - OUT =      -3.2043E-04

     PERCENT DISCREPANCY =          -0.00         PERCENT DISCREPANCY =          -0.00




 HEAD WILL BE SAVED ON UNIT   62 AT END OF TIME STEP    1, STRESS PERIOD   20
1
  VOLUMETRIC BUDGET FOR ENTIRE MODEL AT END OF TIME STEP    1, STRESS PERIOD  20
  ------------------------------------------------------------------------------

     CUMULATIVE VOLUMES      L**3       RATES FOR THIS TIME STEP      L**3/T
     ------------------                 ------------------------

           IN:                                      IN:
           ---                                      ---
             STORAGE     =   700233408.0000               STORAGE     =          82.3612
       CONSTANT HEAD     =           0.0000         CONSTANT HEAD     =           0.0000
     HEAD DEP BOUNDS     =    13684726.0000       HEAD DEP BOUNDS     =           0.2883
      STREAM LEAKAGE     =   561513088.0000        STREAM LEAKAGE     =          11.9716
        UZF RECHARGE     =       73223.9531          UZF RECHARGE     =           0.0000
               GW ET     =           0.0000                 GW ET     =           0.0000
     SURFACE LEAKAGE     =           0.0000       SURFACE LEAKAGE     =           0.0000
           AG WELLS      =           0.0000             AG WELLS      =           0.0000

                TOTAL IN =  1275504384.0000                  TOTAL IN =          94.6211

          OUT:                                     OUT:
          ----                                     ----
             STORAGE     =   349905472.0000               STORAGE     =           0.7321
       CONSTANT HEAD     =           0.0000         CONSTANT HEAD     =           0.0000
     HEAD DEP BOUNDS     =    13692054.0000       HEAD DEP BOUNDS     =           0.2870
      STREAM LEAKAGE     =   484178976.0000        STREAM LEAKAGE     =          10.0711
        UZF RECHARGE     =           0.0000          UZF RECHARGE     =           0.0000
               GW ET     =           0.0000                 GW ET     =           0.0000
     SURFACE LEAKAGE     =           0.0000       SURFACE LEAKAGE     =           0.0000
           AG WELLS      =   427732864.0000             AG WELLS      =          83.5308

               TOTAL OUT =  1275509376.0000                 TOTAL OUT =          94.6211

                IN - OUT =       -4992.0000                  IN - OUT =       4.5776E-05

     PERCENT DISCREPANCY =          -0.00         PERCENT DISCREPANCY =           0.00






         TIME SUMMARY AT END OF TIME STEP    1 IN STRESS PERIOD   20
                    SECONDS     MINUTES      HOURS       DAYS        YEARS
                    -----------------------------------------------------------
   TIME STEP LENGTH  87667.      1461.1      24.352      1.0147     2.77799E-03
 STRESS PERIOD TIME  87667.      1461.1      24.352      1.0147     2.77799E-03
         TOTAL TIME 4.75142E+07 7.91903E+05  13198.      549.93      1.5056    
1
 
 SOLVING FOR HEAD 
                                                   Max.-Head-Change                         Max.-Flux-Residual
  Residual-Control   Outer-Iter.   Inner-Iter.     Column Row Layer    Maximum-Head-Change  Column Row Layer    Maximum-Flux-Residual          L2-NORM 
          0                 1           2             5    8     1       0.1868384737E-01       5    8    1         0.1012905404E+01      0.2225134436E+01
          0                 2           2             4    7     1      -0.5269679978E-01       5    8    1        -0.2872131990E+01      0.7024544472E+01
          0                 3           2             4    7     1      -0.4399444421E+00       4    7    1        -0.2361284975E+02      0.5783502220E+02
          0                 4           2             4    7     1       0.2996176012E-01       5    8    1         0.1666258284E+01      0.4054004856E+01
          0                 5           2             4    7     1      -0.1192494445E-02       5    8    1        -0.6814090044E-01      0.1658423071E+00
          0                 6           1             4    7     1       0.1471488165E-04       5    8    1         0.8624574264E-03      0.2111273914E-02

    ------------------------------------------------
       NWT REQUIRED            6 OUTER ITERATIONS 
       AND A TOTAL OF         11 INNER ITERATIONS.
    ------------------------------------------------

 NO OUTPUT CONTROL FOR STRESS PERIOD   20   TIME STEP    2
 
 SOLVING FOR HEAD 
                                                   Max.-Head-Change                         Max.-Flux-Residual
  Residual-Control   Outer-Iter.   Inner-Iter.     Column Row Layer    Maximum-Head-Change  Column Row Layer    Maximum-Flux-Residual          L2-NORM 
          0                 1           2             5    8     1       0.3199043804E-01       5    8    1         0.1747700909E+01      0.3673654192E+01
          0                 2           2             5    8     1      -0.3283829136E-01       5    8    1        -0.1811487564E+01      0.4355445043E+01
          0                 3           2             4    7     1      -0.1656915995E-01       4    7    1        -0.8894466984E+00      0.2178746815E+01
          0                 4           2             4    7     1       0.1775755025E-01       4    7    1         0.9797390887E+00      0.2399391705E+01
          0                 5           2             4    7     1      -0.1717382781E-01       4    7    1        -0.9739349176E+00      0.2385630062E+01
          0                 6           2             4    7     1      -0.1533813724E-02       4    7    1        -0.8698122866E-01      0.2130480939E+00
          0                 7           2             4    7     1      -0.5108235197E-02       4    7    1        -0.2896838129E+00      0.7095760211E+00
          0                 8           1             4    7     1       0.6313275953E-04       5    8    1         0.3683413197E-02      0.9023839017E-02

    ------------------------------------------------
       NWT REQUIRED            8 OUTER ITERATIONS 
       AND A TOTAL OF         15 INNER ITERATIONS.
    ------------------------------------------------

 NO OUTPUT CONTROL FOR STRESS PERIOD   20   TIME STEP    3
 
 SOLVING FOR HEAD 
                                                   Max.-Head-Change                         Max.-Flux-Residual
  Residual-Control   Outer-Iter.   Inner-Iter.     Column Row Layer    Maximum-Head-Change  Column Row Layer    Maximum-Flux-Residual          L2-NORM 
          0                 1           2             5    8     1       0.3210641855E-01       5    8    1         0.1753111501E+01      0.3712866931E+01
          0                 2           2             4    7     1      -0.1175186524E+00       5    8    1        -0.6407530512E+01      0.1560580035E+02
          0                 3           2             4    7     1      -0.5466663636E-01       4    7    1        -0.2934208067E+01      0.7177464860E+01
          0                 4           2             4    7     1       0.3723109760E-02       4    7    1         0.2054195140E+00      0.5024421482E+00
          0                 5           2             4    7     1      -0.1481812329E-03       4    7    1        -0.8403339436E-02      0.2055487824E-01
          0                 6           1             4    7     1       0.1828495255E-05       4    7    1         0.1065529943E-03      0.2620126397E-03

    ------------------------------------------------
       NWT REQUIRED            6 OUTER ITERATIONS 
       AND A TOTAL OF         11 INNER ITERATIONS.
    ------------------------------------------------

 NO OUTPUT CONTROL FOR STRESS PERIOD   20   TIME STEP    4
 
 SOLVING FOR HEAD 
                                                   Max.-Head-Change                         Max.-Flux-Residual
  Residual-Control   Outer-Iter.   Inner-Iter.     Column Row Layer    Maximum-Head-Change  Column Row Layer    Maximum-Flux-Residual          L2-NORM 
          0                 1           2             5    8     1       0.3576387280E-01       5    8    1         0.1953980317E+01      0.4143608240E+01
          0                 2           2             4    7     1      -0.1122582798E+00       5    8    1        -0.6138695853E+01      0.1493405445E+02
          0                 3           2             5    8     1       0.1622907995E-02       5    8    1         0.9209634293E-01      0.2237504223E+00
          0                 4           1             5    8     1      -0.6457703950E-04       5    8    1        -0.3770734923E-02      0.9246758585E-02

    ------------------------------------------------
       NWT REQUIRED            4 OUTER ITERATIONS 
       AND A TOTAL OF          7 INNER ITERATIONS.
    ------------------------------------------------

 NO OUTPUT CONTROL FOR STRESS PERIOD   20   TIME STEP    5
 
 SOLVING FOR HEAD 
                                                   Max.-Head-Change                         Max.-Flux-Residual
  Residual-Control   Outer-Iter.   Inner-Iter.     Column Row Layer    Maximum-Head-Change  Column Row Layer    Maximum-Flux-Residual          L2-NORM 
          0                 1           2             5    8     1       0.3743561885E-01       5    8    1         0.2045164164E+01      0.4358328238E+01
          0                 2           2             4    7     1      -0.1224199026E+00       5    8    1        -0.6688169822E+01      0.1627484505E+02
          0                 3           2             4    7     1      -0.1103790039E-01       4    7    1        -0.5925936727E+00      0.1440696290E+01
          0                 4           2             4    7     1       0.7517466871E-03       4    7    1         0.4148652870E-01      0.1008210537E+00
          0                 5           1             4    7     1      -0.2991980122E-04       4    7    1        -0.1697114492E-02      0.4125182301E-02

    ------------------------------------------------
       NWT REQUIRED            5 OUTER ITERATIONS 
       AND A TOTAL OF          9 INNER ITERATIONS.
    ------------------------------------------------

 NO OUTPUT CONTROL FOR STRESS PERIOD   20   TIME STEP    6
 
 SOLVING FOR HEAD 
                                                   Max.-Head-Change                         Max.-Flux-Residual
  Residual-Control   Outer-Iter.   Inner-Iter.     Column Row Layer    Maximum-Head-Change  Column Row Layer    Maximum-Flux-Residual          L2-NORM 
          0                 1           2             5    8     1       0.3970550996E-01       5    8    1         0.2169331390E+01      0.4640957215E+01
          0                 2           2             4    7     1      -0.1217553312E+00       5    8    1        -0.6659163081E+01      0.1619736643E+02
          0                 3           2             4    7     1      -0.7642950974E-02       4    7    1        -0.4103889901E+00      0.9941542598E+00
          0                 4           2             4    7     1       0.5205305767E-03       4    7    1         0.2873053159E-01      0.6954714358E-01
          0                 5           1             4    7     1      -0.2071731207E-04       4    7    1        -0.1175282625E-02      0.2846050369E-02

    ------------------------------------------------
       NWT REQUIRED            5 OUTER ITERATIONS 
       AND A TOTAL OF          9 INNER ITERATIONS.
    ------------------------------------------------

 NO OUTPUT CONTROL FOR STRESS PERIOD   20   TIME STEP    7
 
 SOLVING FOR HEAD 
                                                   Max.-Head-Change                         Max.-Flux-Residual
  Residual-Control   Outer-Iter.   Inner-Iter.     Column Row Layer    Maximum-Head-Change  Column Row Layer    Maximum-Flux-Residual          L2-NORM 
          0                 1           2             5    8     1       0.4174209211E-01       5    8    1         0.2280576859E+01      0.4899387005E+01
          0                 2           2             4    7     1      -0.1228582946E+00       5    8    1        -0.6723759054E+01      0.1635031151E+02
          0                 3           2             4    7     1      -0.1224267150E-01       4    7    1        -0.6572688014E+00      0.1597746740E+01
          0                 4           2             4    7     1       0.8337986728E-03       4    7    1         0.4601422378E-01      0.1118180831E+00
          0                 5           1             4    7     1      -0.3318550158E-04       4    7    1        -0.1882321920E-02      0.4575699436E-02

    ------------------------------------------------
       NWT REQUIRED            5 OUTER ITERATIONS 
       AND A TOTAL OF          9 INNER ITERATIONS.
    ------------------------------------------------

 NO OUTPUT CONTROL FOR STRESS PERIOD   20   TIME STEP    8
 
 SOLVING FOR HEAD 
                                                   Max.-Head-Change                         Max.-Flux-Residual
  Residual-Control   Outer-Iter.   Inner-Iter.     Column Row Layer    Maximum-Head-Change  Column Row Layer    Maximum-Flux-Residual          L2-NORM 
          0                 1           2             5    8     1       0.4384511821E-01       5    8    1         0.2395452966E+01      0.5166654497E+01
          0                 2           2             4    7     1      -0.1213801358E+00       5    8    1        -0.6649956079E+01      0.1616445412E+02
          0                 3           2             4    7     1      -0.5743862389E-02       4    7    1        -0.3084747526E+00      0.7438935204E+00
          0                 4           2             4    7     1       0.3911913670E-03       4    7    1         0.2159550710E-01      0.5201527972E-01
          0                 5           1             4    7     1      -0.1556956316E-04       4    7    1        -0.8833889824E-03      0.2129615755E-02

    ------------------------------------------------
       NWT REQUIRED            5 OUTER ITERATIONS 
       AND A TOTAL OF          9 INNER ITERATIONS.
    ------------------------------------------------

 NO OUTPUT CONTROL FOR STRESS PERIOD   20   TIME STEP    9
 
 SOLVING FOR HEAD 
                                                   Max.-Head-Change                         Max.-Flux-Residual
  Residual-Control   Outer-Iter.   Inner-Iter.     Column Row Layer    Maximum-Head-Change  Column Row Layer    Maximum-Flux-Residual          L2-NORM 
          0                 1           2             5    8     1       0.4561072913E-01       5    8    1         0.2491674036E+01      0.5397407442E+01
          0                 2           2             4    7     1      -0.1235897726E+00       5    8    1        -0.6772381030E+01      0.1646058672E+02
          0                 3           2             4    7     1      -0.5721934043E-02       4    7    1        -0.3073021253E+00      0.7406291468E+00
          0                 4           2             4    7     1       0.3896979139E-03       4    7    1         0.2151504847E-01      0.5178830516E-01
          0                 5           1             4    7     1      -0.1551012315E-04       4    7    1        -0.8802085092E-03      0.2120627996E-02

    ------------------------------------------------
       NWT REQUIRED            5 OUTER ITERATIONS 
       AND A TOTAL OF          9 INNER ITERATIONS.
    ------------------------------------------------

 NO OUTPUT CONTROL FOR STRESS PERIOD   20   TIME STEP   10
 
 SOLVING FOR HEAD 
                                                   Max.-Head-Change                         Max.-Flux-Residual
  Residual-Control   Outer-Iter.   Inner-Iter.     Column Row Layer    Maximum-Head-Change  Column Row Layer    Maximum-Flux-Residual          L2-NORM 
          0                 1           2             5    8     1       0.4736014338E-01       5    8    1         0.2586980787E+01      0.5627098564E+01
          0                 2           2             4    7     1      -0.1245254284E+00       5    8    1        -0.6826236434E+01      0.1658912315E+02
          0                 3           2             4    7     1      -0.5115798060E-02       4    7    1        -0.2747745244E+00      0.6608250101E+00
          0                 4           2             4    7     1       0.3484164460E-03       4    7    1         0.1923779747E-01      0.4619041913E-01
          0                 5           1             4    7     1      -0.1386710474E-04       4    7    1        -0.7870468776E-03      0.1891100059E-02

    ------------------------------------------------
       NWT REQUIRED            5 OUTER ITERATIONS 
       AND A TOTAL OF          9 INNER ITERATIONS.
    ------------------------------------------------

 NO OUTPUT CONTROL FOR STRESS PERIOD   20   TIME STEP   11
 
 SOLVING FOR HEAD 
                                                   Max.-Head-Change                         Max.-Flux-Residual
  Residual-Control   Outer-Iter.   Inner-Iter.     Column Row Layer    Maximum-Head-Change  Column Row Layer    Maximum-Flux-Residual          L2-NORM 
          0                 1           2             5    8     1       0.4903860668E-01       5    8    1         0.2678353160E+01      0.5849490568E+01
          0                 2           2             4    7     1      -0.1249509775E+00       5    8    1        -0.6852279309E+01      0.1665005114E+02
          0                 3           2             4    7     1      -0.5684300681E-02       4    7    1        -0.3052903908E+00      0.7350033639E+00
          0                 4           2             4    7     1       0.3871348552E-03       4    7    1         0.2137428338E-01      0.5138988006E-01
          0                 5           1             4    7     1      -0.1540811224E-04       4    7    1        -0.8744528718E-03      0.2103483866E-02

    ------------------------------------------------
       NWT REQUIRED            5 OUTER ITERATIONS 
       AND A TOTAL OF          9 INNER ITERATIONS.
    ------------------------------------------------

 NO OUTPUT CONTROL FOR STRESS PERIOD   20   TIME STEP   12
 
 SOLVING FOR HEAD 
                                                   Max.-Head-Change                         Max.-Flux-Residual
  Residual-Control   Outer-Iter.   Inner-Iter.     Column Row Layer    Maximum-Head-Change  Column Row Layer    Maximum-Flux-Residual          L2-NORM 
          0                 1           2             5    8     1       0.5066846742E-01       5    8    1         0.2767027841E+01      0.6066950593E+01
          0                 2           2             4    7     1      -0.1249863982E+00       5    8    1        -0.6857063948E+01      0.1665928257E+02
          0                 3           2             4    7     1      -0.5536404962E-02       4    7    1        -0.2973558896E+00      0.7153250181E+00
          0                 4           2             4    7     1       0.3770622760E-03       4    7    1         0.2081881906E-01      0.5001076398E-01
          0                 5           1             4    7     1      -0.1500721970E-04       4    7    1        -0.8517301501E-03      0.2047237556E-02

    ------------------------------------------------
       NWT REQUIRED            5 OUTER ITERATIONS 
       AND A TOTAL OF          9 INNER ITERATIONS.
    ------------------------------------------------

 NO OUTPUT CONTROL FOR STRESS PERIOD   20   TIME STEP   13
 
 SOLVING FOR HEAD 
                                                   Max.-Head-Change                         Max.-Flux-Residual
  Residual-Control   Outer-Iter.   Inner-Iter.     Column Row Layer    Maximum-Head-Change  Column Row Layer    Maximum-Flux-Residual          L2-NORM 
          0                 1           2             5    8     1       0.5221996025E-01       5    8    1         0.2851364891E+01      0.6276053694E+01
          0                 2           2             4    7     1      -0.1251166148E+00       5    8    1        -0.6866491709E+01      0.1668033110E+02
          0                 3           2             4    7     1      -0.5562601670E-02       4    7    1        -0.2987644125E+00      0.7185091331E+00
          0                 4           2             4    7     1       0.3788464260E-03       4    7    1         0.2091746837E-01      0.5022896445E-01
          0                 5           1             4    7     1      -0.1507822957E-04       4    7    1        -0.8557673846E-03      0.2055233993E-02

    ------------------------------------------------
       NWT REQUIRED            5 OUTER ITERATIONS 
       AND A TOTAL OF          9 INNER ITERATIONS.
    ------------------------------------------------

 NO OUTPUT CONTROL FOR STRESS PERIOD   20   TIME STEP   14
 
 SOLVING FOR HEAD 
                                                   Max.-Head-Change                         Max.-Flux-Residual
  Residual-Control   Outer-Iter.   Inner-Iter.     Column Row Layer    Maximum-Head-Change  Column Row Layer    Maximum-Flux-Residual          L2-NORM 
          0                 1           2             5    8     1       0.5370596287E-01       5    8    1         0.2932078469E+01      0.6478095893E+01
          0                 2           2             5    7     1      -0.1252334895E+00       5    8    1        -0.6874322593E+01      0.1669784520E+02
          0                 3           2             4    7     1      -0.5546640903E-02       4    7    1        -0.2979097276E+00      0.7162040460E+00
          0                 4           2             4    7     1       0.3777594023E-03       4    7    1         0.2085766729E-01      0.5006417736E-01
          0                 5           1             4    7     1      -0.1503496571E-04       4    7    1        -0.8533223654E-03      0.2047993636E-02

    ------------------------------------------------
       NWT REQUIRED            5 OUTER ITERATIONS 
       AND A TOTAL OF          9 INNER ITERATIONS.
    ------------------------------------------------

 NO OUTPUT CONTROL FOR STRESS PERIOD   20   TIME STEP   15
 
 SOLVING FOR HEAD 
                                                   Max.-Head-Change                         Max.-Flux-Residual
  Residual-Control   Outer-Iter.   Inner-Iter.     Column Row Layer    Maximum-Head-Change  Column Row Layer    Maximum-Flux-Residual          L2-NORM 
          0                 1           2             5    8     1       0.5512833708E-01       5    8    1         0.3009274057E+01      0.6673201105E+01
          0                 2           2             5    7     1      -0.1253671630E+00       5    8    1        -0.6882098747E+01      0.1671557659E+02
          0                 3           2             4    7     1      -0.5540795086E-02       4    7    1        -0.2975973721E+00      0.7152592288E+00
          0                 4           2             4    7     1       0.3773612660E-03       4    7    1         0.2083583428E-01      0.4999742719E-01
          0                 5           1             4    7     1      -0.1501911963E-04       4    7    1        -0.8524305551E-03      0.2045270607E-02

    ------------------------------------------------
       NWT REQUIRED            5 OUTER ITERATIONS 
       AND A TOTAL OF          9 INNER ITERATIONS.
    ------------------------------------------------

 NO OUTPUT CONTROL FOR STRESS PERIOD   20   TIME STEP   16
 
 SOLVING FOR HEAD 
                                                   Max.-Head-Change                         Max.-Flux-Residual
  Residual-Control   Outer-Iter.   Inner-Iter.     Column Row Layer    Maximum-Head-Change  Column Row Layer    Maximum-Flux-Residual          L2-NORM 
          0                 1           2             5    8     1       0.5649135660E-01       5    8    1         0.3083189978E+01      0.6861754280E+01
          0                 2           2             5    7     1      -0.1254967591E+00       5    8    1        -0.6889490193E+01      0.1673268335E+02
          0                 3           2             4    7     1      -0.5533007070E-02       4    7    1        -0.2971802732E+00      0.7140915874E+00
          0                 4           2             4    7     1       0.3768308552E-03       4    7    1         0.2080666718E-01      0.4991505297E-01
          0                 5           1             4    7     1      -0.1499800929E-04       4    7    1        -0.8512386987E-03      0.2041938315E-02

    ------------------------------------------------
       NWT REQUIRED            5 OUTER ITERATIONS 
       AND A TOTAL OF          9 INNER ITERATIONS.
    ------------------------------------------------

 NO OUTPUT CONTROL FOR STRESS PERIOD   20   TIME STEP   17
 
 SOLVING FOR HEAD 
                                                   Max.-Head-Change                         Max.-Flux-Residual
  Residual-Control   Outer-Iter.   Inner-Iter.     Column Row Layer    Maximum-Head-Change  Column Row Layer    Maximum-Flux-Residual          L2-NORM 
          0                 1           2             5    8     1       0.5779854051E-01       5    8    1         0.3154022917E+01      0.7044068113E+01
          0                 2           2             5    7     1      -0.1256233629E+00       5    8    1        -0.6896573341E+01      0.1674932284E+02
          0                 3           2             4    7     1      -0.5525236323E-02       4    7    1        -0.2967636323E+00      0.7129557992E+00
          0                 4           2             4    7     1       0.3763016205E-03       4    7    1         0.2077753123E-01      0.4983128926E-01
          0                 5           1             4    7     1      -0.1497694581E-04       4    7    1        -0.8500480833E-03      0.2037829471E-02

    ------------------------------------------------
       NWT REQUIRED            5 OUTER ITERATIONS 
       AND A TOTAL OF          9 INNER ITERATIONS.
    ------------------------------------------------

 NO OUTPUT CONTROL FOR STRESS PERIOD   20   TIME STEP   18
 
 SOLVING FOR HEAD 
                                                   Max.-Head-Change                         Max.-Flux-Residual
  Residual-Control   Outer-Iter.   Inner-Iter.     Column Row Layer    Maximum-Head-Change  Column Row Layer    Maximum-Flux-Residual          L2-NORM 
          0                 1           2             5    8     1       0.5905297153E-01       5    8    1         0.3221945032E+01      0.7220431832E+01
          0                 2           2             5    7     1      -0.1257470493E+00       5    8    1        -0.6903365409E+01      0.1676551254E+02
          0                 3           2             4    7     1      -0.5517492553E-02       4    7    1        -0.2963480116E+00      0.7118503120E+00
          0                 4           2             4    7     1       0.3757742230E-03       4    7    1         0.2074846583E-01      0.4975308065E-01
          0                 5           1             4    7     1      -0.1495595452E-04       4    7    1        -0.8488602691E-03      0.2034620232E-02

    ------------------------------------------------
       NWT REQUIRED            5 OUTER ITERATIONS 
       AND A TOTAL OF          9 INNER ITERATIONS.
    ------------------------------------------------

 NO OUTPUT CONTROL FOR STRESS PERIOD   20   TIME STEP   19
 
 SOLVING FOR HEAD 
                                                   Max.-Head-Change                         Max.-Flux-Residual
  Residual-Control   Outer-Iter.   Inner-Iter.     Column Row Layer    Maximum-Head-Change  Column Row Layer    Maximum-Flux-Residual          L2-NORM 
          0                 1           2             5    8     1       0.6025765501E-01       5    8    1         0.3287123872E+01      0.7391126334E+01
          0                 2           2             5    7     1      -0.1258679074E+00       5    8    1        -0.6909883151E+01      0.1678126929E+02
          0                 3           2             4    7     1      -0.5509781948E-02       4    7    1        -0.2959337759E+00      0.7107739551E+00
          0                 4           2             4    7     1       0.3752490842E-03       4    7    1         0.2071949647E-01      0.4967687516E-01
          0                 5           1             4    7     1      -0.1493505394E-04       4    7    1        -0.8476763912E-03      0.2031491275E-02

    ------------------------------------------------
       NWT REQUIRED            5 OUTER ITERATIONS 
       AND A TOTAL OF          9 INNER ITERATIONS.
    ------------------------------------------------

 NO OUTPUT CONTROL FOR STRESS PERIOD   20   TIME STEP   20
 
 SOLVING FOR HEAD 
                                                   Max.-Head-Change                         Max.-Flux-Residual
  Residual-Control   Outer-Iter.   Inner-Iter.     Column Row Layer    Maximum-Head-Change  Column Row Layer    Maximum-Flux-Residual          L2-NORM 
          0                 1           2             5    8     1       0.6141567245E-01       5    8    1         0.3349730965E+01      0.7556416461E+01
          0                 2           2             5    7     1      -0.1259859684E+00       5    8    1        -0.6916143720E+01      0.1679660981E+02
          0                 3           2             4    7     1      -0.5502111035E-02       4    7    1        -0.2955213068E+00      0.7097257188E+00
          0                 4           2             4    7     1       0.3747266490E-03       4    7    1         0.2069064993E-01      0.4960264384E-01
          0                 5           1             4    7     1      -0.1491426101E-04       4    7    1        -0.8464975035E-03      0.2028452078E-02

    ------------------------------------------------
       NWT REQUIRED            5 OUTER ITERATIONS 
       AND A TOTAL OF          9 INNER ITERATIONS.
    ------------------------------------------------

 NO OUTPUT CONTROL FOR STRESS PERIOD   20   TIME STEP   21
 
 SOLVING FOR HEAD 
                                                   Max.-Head-Change                         Max.-Flux-Residual
  Residual-Control   Outer-Iter.   Inner-Iter.     Column Row Layer    Maximum-Head-Change  Column Row Layer    Maximum-Flux-Residual          L2-NORM 
          0                 1           2             5    8     1       0.6252946375E-01       5    8    1         0.3409902628E+01      0.7716564025E+01
          0                 2           2             5    7     1      -0.1261013372E+00       5    8    1        -0.6922160748E+01      0.1681155041E+02
          0                 3           2             4    7     1      -0.5494485715E-02       4    7    1        -0.2951109526E+00      0.7087047621E+00
          0                 4           2             4    7     1       0.3742073188E-03       4    7    1         0.2066195061E-01      0.4953036541E-01
          0                 5           1             4    7     1      -0.1489359139E-04       4    7    1        -0.8453245832E-03      0.2025488033E-02

    ------------------------------------------------
       NWT REQUIRED            5 OUTER ITERATIONS 
       AND A TOTAL OF          9 INNER ITERATIONS.
    ------------------------------------------------

 NO OUTPUT CONTROL FOR STRESS PERIOD   20   TIME STEP   22
 
 SOLVING FOR HEAD 
                                                   Max.-Head-Change                         Max.-Flux-Residual
  Residual-Control   Outer-Iter.   Inner-Iter.     Column Row Layer    Maximum-Head-Change  Column Row Layer    Maximum-Flux-Residual          L2-NORM 
          0                 1           2             5    8     1       0.6360144983E-01       5    8    1         0.3467773196E+01      0.7871792714E+01
          0                 2           2             5    7     1      -0.1262140732E+00       5    8    1        -0.6927947669E+01      0.1682610548E+02
          0                 3           2             4    7     1      -0.5486911349E-02       4    7    1        -0.2947030286E+00      0.7077097818E+00
          0                 4           2             4    7     1       0.3736914593E-03       4    7    1         0.2063342059E-01      0.4945996411E-01
          0                 5           1             4    7     1      -0.1487306003E-04       4    7    1        -0.8441585765E-03      0.2022601610E-02

    ------------------------------------------------
       NWT REQUIRED            5 OUTER ITERATIONS 
       AND A TOTAL OF          9 INNER ITERATIONS.
    ------------------------------------------------

 NO OUTPUT CONTROL FOR STRESS PERIOD   20   TIME STEP   23
 
 SOLVING FOR HEAD 
                                                   Max.-Head-Change                         Max.-Flux-Residual
  Residual-Control   Outer-Iter.   Inner-Iter.     Column Row Layer    Maximum-Head-Change  Column Row Layer    Maximum-Flux-Residual          L2-NORM 
          0                 1           2             5    8     1       0.6463416133E-01       5    8    1         0.3523483829E+01      0.8022330075E+01
          0                 2           2             5    7     1      -0.1263242352E+00       5    8    1        -0.6933518599E+01      0.1684028893E+02
          0                 3           2             4    7     1      -0.5479393684E-02       4    7    1        -0.2942978719E+00      0.7067397810E+00
          0                 4           2             4    7     1       0.3731794614E-03       4    7    1         0.2060508348E-01      0.4939125566E-01
          0                 5           1             4    7     1      -0.1485268226E-04       4    7    1        -0.8430004168E-03      0.2019780262E-02

    ------------------------------------------------
       NWT REQUIRED            5 OUTER ITERATIONS 
       AND A TOTAL OF          9 INNER ITERATIONS.
    ------------------------------------------------

 NO OUTPUT CONTROL FOR STRESS PERIOD   20   TIME STEP   24
 
 SOLVING FOR HEAD 
                                                   Max.-Head-Change                         Max.-Flux-Residual
  Residual-Control   Outer-Iter.   Inner-Iter.     Column Row Layer    Maximum-Head-Change  Column Row Layer    Maximum-Flux-Residual          L2-NORM 
          0                 1           2             5    8     1       0.6562939487E-01       5    8    1         0.3577134478E+01      0.8168380414E+01
          0                 2           2             5    7     1      -0.1264318817E+00       5    8    1        -0.6938883532E+01      0.1685411366E+02
          0                 3           2             4    7     1      -0.5471936155E-02       4    7    1        -0.2938956873E+00      0.7057939636E+00
          0                 4           2             4    7     1       0.3726715590E-03       4    7    1         0.2057695364E-01      0.4932436858E-01
          0                 5           1             4    7     1      -0.1483246739E-04       4    7    1        -0.8418506900E-03      0.2017037519E-02

    ------------------------------------------------
       NWT REQUIRED            5 OUTER ITERATIONS 
       AND A TOTAL OF          9 INNER ITERATIONS.
    ------------------------------------------------

 NO OUTPUT CONTROL FOR STRESS PERIOD   20   TIME STEP   25
 
 SOLVING FOR HEAD 
                                                   Max.-Head-Change                         Max.-Flux-Residual
  Residual-Control   Outer-Iter.   Inner-Iter.     Column Row Layer    Maximum-Head-Change  Column Row Layer    Maximum-Flux-Residual          L2-NORM 
          0                 1           2             5    8     1       0.6658953492E-01       5    8    1         0.3628857380E+01      0.8310157974E+01
          0                 2           2             5    7     1      -0.1265371004E+00       5    8    1        -0.6944055693E+01      0.1686759439E+02
          0                 3           2             4    7     1      -0.5464543564E-02       4    7    1        -0.2934967603E+00      0.7048714309E+00
          0                 4           2             4    7     1       0.3721680798E-03       4    7    1         0.2054905107E-01      0.4925895795E-01
          0                 5           1             4    7     1      -0.1481242878E-04       4    7    1        -0.8407102607E-03      0.2014354299E-02

    ------------------------------------------------
       NWT REQUIRED            5 OUTER ITERATIONS 
       AND A TOTAL OF          9 INNER ITERATIONS.
    ------------------------------------------------

 NO OUTPUT CONTROL FOR STRESS PERIOD   20   TIME STEP   26
 
 SOLVING FOR HEAD 
                                                   Max.-Head-Change                         Max.-Flux-Residual
  Residual-Control   Outer-Iter.   Inner-Iter.     Column Row Layer    Maximum-Head-Change  Column Row Layer    Maximum-Flux-Residual          L2-NORM 
          0                 1           2             5    8     1       0.6751623278E-01       5    8    1         0.3678744906E+01      0.8447836449E+01
          0                 2           2             5    7     1      -0.1266399465E+00       5    8    1        -0.6949044319E+01      0.1688074200E+02
          0                 3           2             4    7     1      -0.5457219316E-02       4    7    1        -0.2931012954E+00      0.7039710746E+00
          0                 4           2             4    7     1       0.3716692550E-03       4    7    1         0.2052139007E-01      0.4919522809E-01
          0                 5           1             4    7     1      -0.1479257600E-04       4    7    1        -0.8395796820E-03      0.2011748496E-02

    ------------------------------------------------
       NWT REQUIRED            5 OUTER ITERATIONS 
       AND A TOTAL OF          9 INNER ITERATIONS.
    ------------------------------------------------

 NO OUTPUT CONTROL FOR STRESS PERIOD   20   TIME STEP   27
 
 SOLVING FOR HEAD 
                                                   Max.-Head-Change                         Max.-Flux-Residual
  Residual-Control   Outer-Iter.   Inner-Iter.     Column Row Layer    Maximum-Head-Change  Column Row Layer    Maximum-Flux-Residual          L2-NORM 
          0                 1           2             5    8     1       0.6841131637E-01       5    8    1         0.3726898302E+01      0.8581696126E+01
          0                 2           2             5    7     1      -0.1267404896E+00       5    8    1        -0.6953859535E+01      0.1689356912E+02
          0                 3           2             4    7     1      -0.5449966510E-02       4    7    1        -0.2927094767E+00      0.7030926105E+00
          0                 4           2             4    7     1       0.3711752956E-03       4    7    1         0.2049398359E-01      0.4913305413E-01
          0                 5           1             4    7     1      -0.1477291582E-04       4    7    1        -0.8384594605E-03      0.2009193998E-02

    ------------------------------------------------
       NWT REQUIRED            5 OUTER ITERATIONS 
       AND A TOTAL OF          9 INNER ITERATIONS.
    ------------------------------------------------

 NO OUTPUT CONTROL FOR STRESS PERIOD   20   TIME STEP   28
 
 SOLVING FOR HEAD 
                                                   Max.-Head-Change                         Max.-Flux-Residual
  Residual-Control   Outer-Iter.   Inner-Iter.     Column Row Layer    Maximum-Head-Change  Column Row Layer    Maximum-Flux-Residual          L2-NORM 
          0                 1           2             5    8     1       0.6927635327E-01       5    8    1         0.3773404566E+01      0.8711793272E+01
          0                 2           2             5    7     1      -0.1268387831E+00       5    8    1        -0.6958510039E+01      0.1690608606E+02
          0                 3           2             4    7     1      -0.5442787848E-02       4    7    1        -0.2923214678E+00      0.7022348590E+00
          0                 4           2             4    7     1       0.3706863857E-03       4    7    1         0.2046684307E-01      0.4907231562E-01
          0                 5           1             4    7     1      -0.1475345689E-04       4    7    1        -0.8373500884E-03      0.2006695247E-02

    ------------------------------------------------
       NWT REQUIRED            5 OUTER ITERATIONS 
       AND A TOTAL OF          9 INNER ITERATIONS.
    ------------------------------------------------

 NO OUTPUT CONTROL FOR STRESS PERIOD   20   TIME STEP   29
 
 SOLVING FOR HEAD 
                                                   Max.-Head-Change                         Max.-Flux-Residual
  Residual-Control   Outer-Iter.   Inner-Iter.     Column Row Layer    Maximum-Head-Change  Column Row Layer    Maximum-Flux-Residual          L2-NORM 
          0                 1           2             5    8     1       0.7011048062E-01       5    8    1         0.3818344965E+01      0.8833999378E+01
          0                 2           2             5    7     1      -0.1269346665E+00       5    8    1        -0.6963003921E+01      0.1691190989E+02
          0                 3           2             4    7     1      -0.1312114275E-01       4    7    1        -0.7044063237E+00      0.1710029580E+01
          0                 4           2             4    7     1       0.8936276800E-03       4    7    1         0.4931732844E-01      0.1197116726E+00
          0                 5           1             4    7     1      -0.3556671915E-04       4    7    1        -0.2017635315E-02      0.4898311702E-02

    ------------------------------------------------
       NWT REQUIRED            5 OUTER ITERATIONS 
       AND A TOTAL OF          9 INNER ITERATIONS.
    ------------------------------------------------

 NO OUTPUT CONTROL FOR STRESS PERIOD   20   TIME STEP   30



 STREAM LISTING     PERIOD     20   STEP       30

 LAYER ROW COL. STREAM  RCH.  FLOW INTO     FLOW TO   FLOW OUT OF   OVRLND.     DIRECT     STREAM       STREAM     STREAM     STREAM   STREAMBED  STREAMBED
                SEG.NO.  NO.  STRM. RCH.    AQUIFER    STRM. RCH.    RUNOFF     PRECIP       ET          HEAD       DEPTH      WIDTH   CONDCTNC.   GRADIENT

   1    1    1     1     1    1.6138E+01  1.9509E-01   1.5943E+01  0.000E+00  0.000E+00  0.000E+00  1.09408E+03  1.032E+00  1.075E+01  4.839E-02  1.344E+00
   1    2    2     1     2    1.5943E+01  3.0079E-01   1.5642E+01  0.000E+00  0.000E+00  0.000E+00  1.08909E+03  1.027E+00  1.067E+01  7.469E-02  1.342E+00
   1    3    3     1     3    1.5642E+01  2.5522E-01   1.5387E+01  0.000E+00  0.000E+00  0.000E+00  1.08344E+03  1.022E+00  1.058E+01  6.345E-02  1.341E+00
   1    3    4     1     4    1.5387E+01  2.3394E-01   1.5153E+01  0.000E+00  0.000E+00  0.000E+00  1.07843E+03  1.017E+00  1.049E+01  5.823E-02  1.339E+00
   1    4    5     2     1    1.3153E+01  2.9763E-01   1.2856E+01  0.000E+00  0.000E+00  0.000E+00  1.07275E+03  8.158E-01  1.200E+01  7.800E-02  1.272E+00
   1    5    6     2     2    1.2856E+01  2.2835E-01   1.2627E+01  0.000E+00  0.000E+00  0.000E+00  1.06732E+03  8.059E-01  1.200E+01  6.000E-02  1.269E+00
   1    6    6     2     3    1.2627E+01  2.2783E-01   1.2399E+01  0.000E+00  0.000E+00  0.000E+00  1.06259E+03  7.972E-01  1.200E+01  6.000E-02  1.266E+00
   1    7    6     2     4    1.2399E+01  2.2731E-01   1.2172E+01  0.000E+00  0.000E+00  0.000E+00  1.05786E+03  7.885E-01  1.200E+01  6.000E-02  1.263E+00
   1    8    6     2     5    1.2172E+01  2.2678E-01   1.1945E+01  0.000E+00  0.000E+00  0.000E+00  1.05314E+03  7.797E-01  1.200E+01  6.000E-02  1.260E+00
   1    3    5     3     1    2.0000E+00  2.8252E-01   1.7175E+00  0.000E+00  0.000E+00  0.000E+00  1.07555E+03  1.909E+00  9.636E+00  7.227E-02  1.955E+00
   1    3    6     3     2    1.7175E+00  2.4905E-01   1.4684E+00  0.000E+00  0.000E+00  0.000E+00  1.07264E+03  1.727E+00  8.909E+00  6.682E-02  1.864E+00
   1    3    7     3     3    1.4684E+00  1.9718E-01   1.2712E+00  0.000E+00  0.000E+00  0.000E+00  1.06987E+03  1.555E+00  8.218E+00  5.547E-02  1.777E+00
   1    4    8     3     4    1.2712E+00  2.2567E-01   1.0456E+00  0.000E+00  0.000E+00  0.000E+00  1.06682E+03  1.364E+00  7.455E+00  6.709E-02  1.682E+00
   1    5    8     3     5    1.0456E+00  1.5790E-01   8.8768E-01  0.000E+00  0.000E+00  0.000E+00  1.06362E+03  1.164E+00  6.655E+00  4.991E-02  1.582E+00
   1    6    8     3     6    8.8768E-01  5.5980E-02   8.3170E-01  0.000E+00  0.000E+00  0.000E+00  1.06158E+03  1.036E+00  6.145E+00  1.844E-02  1.518E+00
   1    5   10     4     1    1.0000E+01  9.0919E-02   9.9091E+00  0.000E+00  0.000E+00  0.000E+00  1.07836E+03  6.368E-01  1.000E+01  2.500E-02  1.212E+00
   1    5    9     4     2    9.9091E+00  1.8158E-01   9.7275E+00  0.000E+00  0.000E+00  0.000E+00  1.07154E+03  6.315E-01  1.000E+01  5.000E-02  1.211E+00
   1    6    8     4     3    9.7275E+00  1.2689E-01   9.6006E+00  0.000E+00  0.000E+00  0.000E+00  1.06381E+03  6.256E-01  1.000E+01  3.500E-02  1.209E+00
   1    6    8     5     1    1.0432E+01  2.2686E-01   1.0205E+01  0.000E+00  0.000E+00  0.000E+00  1.05868E+03  6.790E-01  1.542E+01  6.166E-02  1.226E+00
   1    7    7     5     2    1.0205E+01  2.7894E-01   9.9265E+00  0.000E+00  0.000E+00  0.000E+00  1.05417E+03  6.732E-01  1.519E+01  7.594E-02  1.224E+00
   1    8    7     5     3    9.9265E+00  1.9221E-01   9.7343E+00  0.000E+00  0.000E+00  0.000E+00  1.04992E+03  6.676E-01  1.497E+01  5.241E-02  1.223E+00
   1    8    6     5     4    9.7343E+00  1.3577E-01   9.5985E+00  0.000E+00  0.000E+00  0.000E+00  1.04691E+03  6.637E-01  1.482E+01  3.706E-02  1.221E+00
   1    9    6     6     1    9.5985E+00  2.2097E-01   9.3776E+00  0.000E+00  0.000E+00  0.000E+00  1.04341E+03  6.828E-01  1.200E+01  6.000E-02  1.228E+00
   1   10    7     6     2    9.3776E+00  2.2039E-01   9.1572E+00  0.000E+00  0.000E+00  0.000E+00  1.03885E+03  6.732E-01  1.200E+01  6.000E-02  1.224E+00
   1   11    7     6     3    9.1572E+00  2.1981E-01   8.9374E+00  0.000E+00  0.000E+00  0.000E+00  1.03430E+03  6.636E-01  1.200E+01  6.000E-02  1.221E+00
   1   12    7     6     4    8.9374E+00  2.1923E-01   8.7181E+00  0.000E+00  0.000E+00  0.000E+00  1.02974E+03  6.539E-01  1.200E+01  6.000E-02  1.218E+00
   1   13    7     6     5    8.7181E+00 -2.8256E-02   8.7464E+00  0.000E+00  0.000E+00  0.000E+00  1.02656E+03  6.496E-01  1.200E+01  2.400E-01 -3.924E-02
   1   14    9     7     1    1.5000E+02  1.3744E+00   1.4863E+02  0.000E+00  0.000E+00  0.000E+00  1.03987E+03  2.288E+00  5.529E+01  5.593E-01  8.191E-01
   1   13    8     7     2    1.4863E+02  1.9565E+00   1.4667E+02  0.000E+00  0.000E+00  0.000E+00  1.03478E+03  2.279E+00  5.525E+01  6.147E-01  1.061E+00
   1   13    7     7     3    1.4667E+02  1.6818E+00   1.4499E+02  0.000E+00  0.000E+00  0.000E+00  1.02969E+03  2.269E+00  5.521E+01  5.584E-01  1.004E+00
   1   13    6     8     1    1.5373E+02  1.0381E+00   1.5270E+02  0.000E+00  0.000E+00  0.000E+00  1.02471E+03  2.839E+00  4.117E+01  4.195E-01  8.248E-01
   1   13    5     8     2    1.5270E+02  2.9983E-01   1.5240E+02  0.000E+00  0.000E+00  0.000E+00  1.01846E+03  2.835E+00  4.110E+01  4.189E-01  2.386E-01
   1   13    4     8     3    1.5240E+02 -1.9845E+00   1.5438E+02  0.000E+00  0.000E+00  0.000E+00  1.01222E+03  2.841E+00  4.119E+01  4.197E+00 -1.576E-01
   1   13    3     8     4    1.5438E+02 -3.4220E+00   1.5780E+02  0.000E+00  0.000E+00  0.000E+00  1.00598E+03  2.859E+00  4.146E+01  4.225E+00 -2.700E-01
   1   13    2     8     5    1.5780E+02 -2.5316E+00   1.6033E+02  0.000E+00  0.000E+00  0.000E+00  9.99755E+02  2.880E+00  4.175E+01  4.255E+00 -1.983E-01
   1   13    1     8     6    1.6033E+02 -1.9771E+00   1.6231E+02  0.000E+00  0.000E+00  0.000E+00  9.94770E+02  2.895E+00  4.197E+01  2.566E+00 -2.568E-01
   1    8    6     9     1    1.1945E+01  0.0000E+00   1.1945E+01  0.000E+00  0.000E+00  0.000E+00  1.08127E+03  2.521E+00  4.000E+00  0.000E+00  1.840E+00
   1    8    5     9     2    1.1945E+01  0.0000E+00   1.1945E+01  0.000E+00  0.000E+00  0.000E+00  1.08077E+03  2.521E+00  4.000E+00  0.000E+00  1.840E+00





UNSATURATED ZONE PACKAGE VOLUMETRIC BUDGET FOR  TIME STEP    30 STRESS PERIOD   20
  ------------------------------------------------------------------------------



     CUMULATIVE VOLUMES      L**3       RATES FOR THIS TIME STEP      L**3/T
     ------------------                 ------------------------

           IN:                                      IN:
           ---                                      ---
        INFILTRATION =   925941212.3866          INFILTRATION =          59.3644

          OUT:                                     OUT:
          ----                                     ----
              UZF ET =   691853395.6542                UZF ET =          60.8175
        UZF RECHARGE =       73224.0000          UZF RECHARGE =       0.0000E+00

            IN - OUT =   234014592.7324              IN - OUT =          -1.4531

          STORAGE:                                 STORAGE:
          --------                                 --------
      STORAGE CHANGE =   234014801.0438        STORAGE CHANGE =          -1.4531

 PERCENT DISCREPANCY IS DIFFERENCE BETWEEN IN-OUT MINUS CHANGE IN STORAGE
 DIVIDED BY THE AVERAGE OF IN AND OUT TIMES 100

 PERCENT DISCREPANCY =          -0.00     PERCENT DISCREPANCY =           0.00






1
  VOLUMETRIC BUDGET FOR AGRICULTURAL FIELDS AT  END OF TIME STEP   30, STRESS PERIOD  20
  ------------------------------------------------------------------------------

     CUMULATIVE VOLUMES      L**3       RATES FOR THIS TIME STEP      L**3/T
     ------------------                 ------------------------

           IN:                                      IN:
           ---                                      ---
               AG WELLS  =   548618688.0000                 AG WELLS  =          46.5714
      DIVERSION SEGMENTS =   334975200.0000        DIVERSION SEGMENTS =          11.9453
       IRRIGATION PONDS  =           0.0000         IRRIGATION PONDS  =           0.0000
           GW IRRIGATION =           0.0000             GW IRRIGATION =           0.0000
           SW IRRIGATION =           0.0000             SW IRRIGATION =           0.0000
        SYSTEM LOSSES GW =           0.0000          SYSTEM LOSSES GW =           0.0000
        SYSTEM LOSSES SW =           0.0000          SYSTEM LOSSES SW =           0.0000

                TOTAL IN =   883593856.0000                  TOTAL IN =          58.5167

          OUT:                                     OUT:
          ----                                     ----
               AG WELLS  =           0.0000                 AG WELLS  =           0.0000
      DIVERSION SEGMENTS =           0.0000        DIVERSION SEGMENTS =           0.0000
       IRRIGATION PONDS  =           0.0000         IRRIGATION PONDS  =           0.0000
           GW IRRIGATION =   548618688.0000             GW IRRIGATION =          46.5714
           SW IRRIGATION =   334981952.0000             SW IRRIGATION =          11.9455
        SYSTEM LOSSES GW =           0.0000          SYSTEM LOSSES GW =           0.0000
        SYSTEM LOSSES SW =           0.0000          SYSTEM LOSSES SW =           0.0000

               TOTAL OUT =   883600640.0000                 TOTAL OUT =          58.5169

                IN - OUT =       -6784.0000                  IN - OUT =      -2.4033E-04

     PERCENT DISCREPANCY =          -0.00         PERCENT DISCREPANCY =          -0.00



1
  VOLUMETRIC BUDGET FOR ENTIRE MODEL AT END OF TIME STEP   30, STRESS PERIOD  20
  ------------------------------------------------------------------------------

     CUMULATIVE VOLUMES      L**3       RATES FOR THIS TIME STEP      L**3/T
     ------------------                 ------------------------

           IN:                                      IN:
           ---                                      ---
             STORAGE     =   816677440.0000               STORAGE     =          44.8362
       CONSTANT HEAD     =           0.0000         CONSTANT HEAD     =           0.0000
     HEAD DEP BOUNDS     =    14417823.0000       HEAD DEP BOUNDS     =           0.2884
      STREAM LEAKAGE     =   591985344.0000        STREAM LEAKAGE     =          11.8256
        UZF RECHARGE     =       73223.9531          UZF RECHARGE     =           0.0000
               GW ET     =           0.0000                 GW ET     =           0.0000
     SURFACE LEAKAGE     =           0.0000       SURFACE LEAKAGE     =           0.0000
           AG WELLS      =           0.0000             AG WELLS      =           0.0000

                TOTAL IN =  1423153792.0000                  TOTAL IN =          56.9501

          OUT:                                     OUT:
          ----                                     ----
             STORAGE     =   350537984.0000               STORAGE     =           0.1487
       CONSTANT HEAD     =           0.0000         CONSTANT HEAD     =           0.0000
     HEAD DEP BOUNDS     =    14420960.0000       HEAD DEP BOUNDS     =           0.2865
      STREAM LEAKAGE     =   509580736.0000        STREAM LEAKAGE     =           9.9434
        UZF RECHARGE     =           0.0000          UZF RECHARGE     =           0.0000
               GW ET     =           0.0000                 GW ET     =           0.0000
     SURFACE LEAKAGE     =           0.0000       SURFACE LEAKAGE     =           0.0000
           AG WELLS      =   548618688.0000             AG WELLS      =          46.5714

               TOTAL OUT =  1423158272.0000                 TOTAL OUT =          56.9500

                IN - OUT =       -4480.0000                  IN - OUT =       1.5259E-04

     PERCENT DISCREPANCY =          -0.00         PERCENT DISCREPANCY =           0.00






         TIME SUMMARY AT END OF TIME STEP   30 IN STRESS PERIOD   20
                    SECONDS     MINUTES      HOURS       DAYS        YEARS
                    -----------------------------------------------------------
   TIME STEP LENGTH  87667.      1461.1      24.352      1.0147     2.77799E-03
 STRESS PERIOD TIME 2.63000E+06  43833.      730.56      30.440     8.33397E-02
         TOTAL TIME 5.00565E+07 8.34276E+05  13905.      579.36      1.5862    
1
1
                            STRESS PERIOD NO.   21, LENGTH =   2630000.    
                            -----------------------------------------------

                              NUMBER OF TIME STEPS =    30

                               MULTIPLIER FOR DELT =     1.000

                            INITIAL TIME STEP SIZE =   87666.66    

 REUSING NON-PARAMETER GHB CELLS FROM LAST STRESS PERIOD

      2 GHB CELLS

 REUSING STREAM SEGMENT DATA FROM LAST STRESS PERIOD



            AREAL INFILTRATION RATE
 READING ON UNIT   19 WITH FORMAT: (FREE)              

            1           2           3           4           5           6           7           8           9          10
 ........................................................................................................................
   1   1.0000E-10  2.0000E-10   0.000       0.000       0.000       0.000       0.000       0.000       0.000       0.000    
   2   2.0000E-10  1.0000E-10  2.0000E-10   0.000       0.000      8.0000E-10  8.0000E-10  5.0000E-10   0.000       0.000    
   3    0.000      5.0000E-10  1.0000E-10  1.0000E-10  8.0000E-10  8.0000E-10  5.0000E-10  5.0000E-10   0.000       0.000    
   4   8.0000E-10  5.0000E-10  1.0000E-10  1.0000E-10  1.0000E-10  1.0000E-10  1.0000E-10  1.0000E-10  2.0000E-10   0.000    
   5   8.0000E-10  5.0000E-10  1.0000E-10  1.0000E-10  1.0000E-10  1.0000E-10  1.0000E-10  1.0000E-10  1.0000E-10  1.0000E-10
   6   8.0000E-10  5.0000E-10  5.0000E-10  2.0000E-10  2.0000E-10  1.0000E-10  1.0000E-10  1.0000E-10  1.0000E-10  5.0000E-10
   7   8.0000E-10  5.0000E-10  5.0000E-10  2.0000E-10  2.0000E-10  1.0000E-10  1.0000E-10  2.0000E-10  2.0000E-10   0.000    
   8    0.000      5.0000E-10  5.0000E-10  2.0000E-10  2.0000E-10  1.0000E-10  1.0000E-10  2.0000E-10  5.0000E-10   0.000    
   9    0.000      5.0000E-10  5.0000E-10  2.0000E-10  2.0000E-10  1.0000E-10  1.0000E-10  2.0000E-10  5.0000E-10   0.000    
  10    0.000      5.0000E-10  5.0000E-10  2.0000E-10  2.0000E-10  1.0000E-10  1.0000E-10  2.0000E-10  5.0000E-10  8.0000E-10
  11    0.000      1.0000E-10  1.0000E-10  1.0000E-10  1.0000E-10  1.0000E-10  1.0000E-10  2.0000E-10  5.0000E-10   0.000    
  12   1.0000E-10  1.0000E-10  1.0000E-10  1.0000E-10  1.0000E-10  1.0000E-10  1.0000E-10  1.0000E-10  2.0000E-10   0.000    
  13   1.0000E-10  1.0000E-10  2.0000E-10  2.0000E-10  2.0000E-10  2.0000E-10  2.0000E-10  1.0000E-10  1.0000E-10   0.000    
  14    0.000      2.0000E-10  5.0000E-10  5.0000E-10  5.0000E-10  5.0000E-10  5.0000E-10  2.0000E-10  1.0000E-10   0.000    
  15    0.000       0.000      8.0000E-10  8.0000E-10  8.0000E-10  8.0000E-10   0.000       0.000       0.000       0.000    

                  ET RATE =  3.250000E-07

 USING ET EXTINCTION DEPTH FROM PREVIOUS STRESS PERIOD. CURRENT PERIOD IS:      21

 USING EXTINCTION WATER CONTENT FROM PREVIOUS STRESS PERIOD. CURRENT PERIOD IS:      21

 USING AIR ENTRY PRESSURE FROM PREVIOUS STRESS PERIOD. CURRENT PERIOD IS:      21

 USING ROOT PRESSURE HEAD FROM PREVIOUS STRESS PERIOD. CURRENT PERIOD IS:      21

 USING ROOT ACTIVITY FROM PREVIOUS STRESS PERIOD. CURRENT PERIOD IS:      21

 PROCESSING AG STRESS PERIOD DATA

 READING AG STRESS PERIOD DATA

 READING IRRIGATION SEGMENT

 READING IRRIGATION WELL

 READING SUPPLEMENTAL WELL

 NO IRRPOND OR REUSING IRRPOND DATA FROM LAST STRESS PERIOD

 END PROCESSING AG STRESS PERIOD DATA OPTIONS
 
 SOLVING FOR HEAD 
                                                   Max.-Head-Change                         Max.-Flux-Residual
  Residual-Control   Outer-Iter.   Inner-Iter.     Column Row Layer    Maximum-Head-Change  Column Row Layer    Maximum-Flux-Residual          L2-NORM 
          0                 1           2             5    8     1       0.7113857863E-01       5    8    1         0.3873954679E+01      0.8974973858E+01
          0                 2           2             4    7     1      -0.2297128406E+00       5    8    1        -0.1248377154E+02      0.3042471660E+02
          0                 3           2             4    7     1       0.1564233075E-01       5    8    1         0.8737982307E+00      0.2129611897E+01
          0                 4           2             4    7     1      -0.6224242242E-03       5    8    1        -0.3573337800E-01      0.8709434562E-01
          0                 5           1             4    7     1       0.7674758870E-05       5    8    1         0.4525066565E-03      0.1103540091E-02

    ------------------------------------------------
       NWT REQUIRED            5 OUTER ITERATIONS 
       AND A TOTAL OF          9 INNER ITERATIONS.
    ------------------------------------------------

 NO OUTPUT CONTROL FOR STRESS PERIOD   21   TIME STEP    1
 
 SOLVING FOR HEAD 
                                                   Max.-Head-Change                         Max.-Flux-Residual
  Residual-Control   Outer-Iter.   Inner-Iter.     Column Row Layer    Maximum-Head-Change  Column Row Layer    Maximum-Flux-Residual          L2-NORM 
          0                 1           2             5    8     1       0.7446303254E-01       5    8    1         0.4056170702E+01      0.9381359257E+01
          0                 2           2             5    8     1      -0.1480604631E-01       5    8    1        -0.8220110461E+00      0.1903435823E+01
          0                 3           2             4    7     1      -0.2179446913E-01       4    7    1        -0.1169900111E+01      0.2862772349E+01
          0                 4           2             4    7     1       0.2165672284E-01       4    7    1         0.1194796084E+01      0.2925646808E+01
          0                 5           2             4    7     1      -0.2025184219E-02       4    7    1        -0.1148435211E+00      0.2812880958E+00
          0                 6           2             4    7     1      -0.6702356252E-02       4    7    1        -0.3800646419E+00      0.9309636132E+00
          0                 7           2             4    7     1      -0.9182517301E-03       4    7    1        -0.5206960457E-01      0.1275388897E+00
          0                 8           2             4    7     1      -0.1385357745E-02       4    7    1        -0.7855667222E-01      0.1924229095E+00
          0                 9           2             4    7     1      -0.5810903326E-02       4    7    1        -0.3295040167E+00      0.8071155248E+00
          0                10           2             4    7     1      -0.1246951086E-02       4    7    1        -0.7070664031E-01      0.1731905966E+00
                                                   Max.-Head-Change                         Max.-Flux-Residual
  Residual-Control   Outer-Iter.   Inner-Iter.     Column Row Layer    Maximum-Head-Change  Column Row Layer    Maximum-Flux-Residual          L2-NORM 
          0                11           2             4    7     1      -0.1386574810E-02       4    7    1        -0.7862333035E-01      0.1925859271E+00
          0                12           2             4    7     1      -0.1336578441E-01       4    7    1        -0.7578768886E+00      0.1856410473E+01
          0                13           2             4    7     1      -0.1261189917E-02       4    7    1        -0.7151146926E-01      0.1751571022E+00
          0                14           1             4    7     1       0.1566071782E-04       5    8    1         0.9137283926E-03      0.2238765973E-02

    ------------------------------------------------
       NWT REQUIRED           14 OUTER ITERATIONS 
       AND A TOTAL OF         27 INNER ITERATIONS.
    ------------------------------------------------

 NO OUTPUT CONTROL FOR STRESS PERIOD   21   TIME STEP    2
 
 SOLVING FOR HEAD 
                                                   Max.-Head-Change                         Max.-Flux-Residual
  Residual-Control   Outer-Iter.   Inner-Iter.     Column Row Layer    Maximum-Head-Change  Column Row Layer    Maximum-Flux-Residual          L2-NORM 
          0                 1           2             5    8     1       0.7241095542E-01       5    8    1         0.3941639127E+01      0.9192582342E+01
          0                 2           2             5    7     1      -0.8946701937E-01       5    8    1        -0.4928627252E+01      0.1193544949E+02
          0                 3           2             4    7     1      -0.2746810562E-01       4    7    1        -0.1474372386E+01      0.3596002327E+01
          0                 4           2             4    7     1       0.1490046461E-03       4    7    1         0.8237393400E-02      0.1921702003E-01
          0                 5           2             4    7     1      -0.5295331520E-03       4    7    1        -0.3002869710E-01      0.7351123240E-01
          0                 6           1             4    7     1       0.6534219257E-05       4    7    1         0.3808689214E-03      0.9323978408E-03

    ------------------------------------------------
       NWT REQUIRED            6 OUTER ITERATIONS 
       AND A TOTAL OF         11 INNER ITERATIONS.
    ------------------------------------------------

 NO OUTPUT CONTROL FOR STRESS PERIOD   21   TIME STEP    3
 
 SOLVING FOR HEAD 
                                                   Max.-Head-Change                         Max.-Flux-Residual
  Residual-Control   Outer-Iter.   Inner-Iter.     Column Row Layer    Maximum-Head-Change  Column Row Layer    Maximum-Flux-Residual          L2-NORM 
          0                 1           2             5    8     1       0.7267452443E-01       5    8    1         0.3955024476E+01      0.9254043327E+01
          0                 2           2             5    7     1      -0.9017507739E-01       5    8    1        -0.4964918380E+01      0.1202794540E+02
          0                 3           2             4    7     1      -0.2745292565E-01       4    7    1        -0.1473549049E+01      0.3594320121E+01
          0                 4           2             4    7     1       0.1541903177E-03       4    7    1         0.8523088123E-02      0.1993526130E-01
          0                 5           1             4    7     1      -0.7757863356E-04       4    7    1        -0.4399898025E-02      0.1073489765E-01

    ------------------------------------------------
       NWT REQUIRED            5 OUTER ITERATIONS 
       AND A TOTAL OF          9 INNER ITERATIONS.
    ------------------------------------------------

 NO OUTPUT CONTROL FOR STRESS PERIOD   21   TIME STEP    4
 
 SOLVING FOR HEAD 
                                                   Max.-Head-Change                         Max.-Flux-Residual
  Residual-Control   Outer-Iter.   Inner-Iter.     Column Row Layer    Maximum-Head-Change  Column Row Layer    Maximum-Flux-Residual          L2-NORM 
          0                 1           2             5    8     1       0.7294910145E-01       5    8    1         0.3969051065E+01      0.9315596704E+01
          0                 2           2             5    7     1      -0.9078150877E-01       5    8    1        -0.4995832443E+01      0.1210708110E+02
          0                 3           2             4    7     1      -0.2712776523E-01       4    7    1        -0.1456089841E+01      0.3551879171E+01
          0                 4           1             4    7     1       0.3342165275E-04       4    7    1         0.1860058116E-02      0.4071836876E-02

    ------------------------------------------------
       NWT REQUIRED            4 OUTER ITERATIONS 
       AND A TOTAL OF          7 INNER ITERATIONS.
    ------------------------------------------------

 NO OUTPUT CONTROL FOR STRESS PERIOD   21   TIME STEP    5
 
 SOLVING FOR HEAD 
                                                   Max.-Head-Change                         Max.-Flux-Residual
  Residual-Control   Outer-Iter.   Inner-Iter.     Column Row Layer    Maximum-Head-Change  Column Row Layer    Maximum-Flux-Residual          L2-NORM 
          0                 1           2             5    8     1       0.7323578336E-01       5    8    1         0.3983776696E+01      0.9377444135E+01
          0                 2           2             5    7     1      -0.9132749909E-01       5    8    1        -0.5023596805E+01      0.1217831119E+02
          0                 3           2             4    7     1      -0.2665074888E-01       4    7    1        -0.1430481113E+01      0.3489464494E+01
          0                 4           2             4    7     1       0.2161225793E-03       4    7    1         0.1193900047E-01      0.2831303306E-01
          0                 5           1             4    7     1      -0.8601759374E-05       4    7    1        -0.4884396465E-03      0.1157374541E-02

    ------------------------------------------------
       NWT REQUIRED            5 OUTER ITERATIONS 
       AND A TOTAL OF          9 INNER ITERATIONS.
    ------------------------------------------------

 NO OUTPUT CONTROL FOR STRESS PERIOD   21   TIME STEP    6
 
 SOLVING FOR HEAD 
                                                   Max.-Head-Change                         Max.-Flux-Residual
  Residual-Control   Outer-Iter.   Inner-Iter.     Column Row Layer    Maximum-Head-Change  Column Row Layer    Maximum-Flux-Residual          L2-NORM 
          0                 1           2             5    8     1       0.7352030898E-01       5    8    1         0.3998412222E+01      0.9438077836E+01
          0                 2           2             5    7     1      -0.9189731677E-01       5    8    1        -0.5052734031E+01      0.1225277589E+02
          0                 3           2             4    7     1      -0.2636015858E-01       4    7    1        -0.1414877733E+01      0.3451549000E+01
          0                 4           2             4    7     1       0.4556797977E-03       4    7    1         0.2515458491E-01      0.6066668697E-01
          0                 5           1             4    7     1      -0.1813622676E-04       4    7    1        -0.1029100890E-02      0.2481766812E-02

    ------------------------------------------------
       NWT REQUIRED            5 OUTER ITERATIONS 
       AND A TOTAL OF          9 INNER ITERATIONS.
    ------------------------------------------------

 NO OUTPUT CONTROL FOR STRESS PERIOD   21   TIME STEP    7
 
 SOLVING FOR HEAD 
                                                   Max.-Head-Change                         Max.-Flux-Residual
  Residual-Control   Outer-Iter.   Inner-Iter.     Column Row Layer    Maximum-Head-Change  Column Row Layer    Maximum-Flux-Residual          L2-NORM 
          0                 1           2             5    8     1       0.7380680672E-01       5    8    1         0.4013183673E+01      0.9498022038E+01
          0                 2           2             5    7     1      -0.9245046590E-01       5    8    1        -0.5081054201E+01      0.1232510641E+02
          0                 3           2             4    7     1      -0.2608492584E-01       4    7    1        -0.1400098796E+01      0.3415643802E+01
          0                 4           2             4    7     1       0.6873641144E-03       4    7    1         0.3793579272E-01      0.9198292607E-01
          0                 5           1             4    7     1      -0.2735735029E-04       4    7    1        -0.1551991445E-02      0.3763405164E-02

    ------------------------------------------------
       NWT REQUIRED            5 OUTER ITERATIONS 
       AND A TOTAL OF          9 INNER ITERATIONS.
    ------------------------------------------------

 NO OUTPUT CONTROL FOR STRESS PERIOD   21   TIME STEP    8
 
 SOLVING FOR HEAD 
                                                   Max.-Head-Change                         Max.-Flux-Residual
  Residual-Control   Outer-Iter.   Inner-Iter.     Column Row Layer    Maximum-Head-Change  Column Row Layer    Maximum-Flux-Residual          L2-NORM 
          0                 1           2             5    8     1       0.7409508358E-01       5    8    1         0.4028078507E+01      0.9557295248E+01
          0                 2           2             5    7     1      -0.9298341909E-01       5    8    1        -0.5108360556E+01      0.1239482881E+02
          0                 3           2             4    7     1      -0.2580532595E-01       4    7    1        -0.1385085706E+01      0.3379156607E+01
          0                 4           2             4    7     1       0.9045164269E-03       4    7    1         0.4991525583E-01      0.1213407716E+00
          0                 5           1             4    7     1      -0.3600009535E-04       4    7    1        -0.2042081985E-02      0.4964805932E-02

    ------------------------------------------------
       NWT REQUIRED            5 OUTER ITERATIONS 
       AND A TOTAL OF          9 INNER ITERATIONS.
    ------------------------------------------------

 NO OUTPUT CONTROL FOR STRESS PERIOD   21   TIME STEP    9
 
 SOLVING FOR HEAD 
                                                   Max.-Head-Change                         Max.-Flux-Residual
  Residual-Control   Outer-Iter.   Inner-Iter.     Column Row Layer    Maximum-Head-Change  Column Row Layer    Maximum-Flux-Residual          L2-NORM 
          0                 1           2             5    8     1       0.7438442270E-01       5    8    1         0.4043055655E+01      0.9615835901E+01
          0                 2           2             5    7     1      -0.9349460052E-01       5    8    1        -0.5134561251E+01      0.1246172551E+02
          0                 3           2             4    7     1      -0.2551025167E-01       4    7    1        -0.1369242366E+01      0.3340627565E+01
          0                 4           2             4    7     1       0.1103890879E-02       4    7    1         0.6091391219E-01      0.1482978045E+00
          0                 5           1             4    7     1      -0.4393527481E-04       4    7    1        -0.2492046947E-02      0.6067933396E-02

    ------------------------------------------------
       NWT REQUIRED            5 OUTER ITERATIONS 
       AND A TOTAL OF          9 INNER ITERATIONS.
    ------------------------------------------------

 NO OUTPUT CONTROL FOR STRESS PERIOD   21   TIME STEP   10
 
 SOLVING FOR HEAD 
                                                   Max.-Head-Change                         Max.-Flux-Residual
  Residual-Control   Outer-Iter.   Inner-Iter.     Column Row Layer    Maximum-Head-Change  Column Row Layer    Maximum-Flux-Residual          L2-NORM 
          0                 1           2             5    8     1       0.7467371009E-01       5    8    1         0.4058052530E+01      0.9673580514E+01
          0                 2           2             5    7     1      -0.9399172947E-01       5    8    1        -0.5160068215E+01      0.1252681657E+02
          0                 3           2             4    7     1      -0.2522728357E-01       4    7    1        -0.1354048950E+01      0.3303682808E+01
          0                 4           2             4    7     1       0.1296086921E-02       4    7    1         0.7151651843E-01      0.1742852701E+00
          0                 5           1             4    7     1      -0.5158475142E-04       4    7    1        -0.2925809158E-02      0.7131368808E-02

    ------------------------------------------------
       NWT REQUIRED            5 OUTER ITERATIONS 
       AND A TOTAL OF          9 INNER ITERATIONS.
    ------------------------------------------------

 NO OUTPUT CONTROL FOR STRESS PERIOD   21   TIME STEP   11
 
 SOLVING FOR HEAD 
                                                   Max.-Head-Change                         Max.-Flux-Residual
  Residual-Control   Outer-Iter.   Inner-Iter.     Column Row Layer    Maximum-Head-Change  Column Row Layer    Maximum-Flux-Residual          L2-NORM 
          0                 1           2             5    8     1       0.7496262135E-01       5    8    1         0.4073049707E+01      0.9730541219E+01
          0                 2           2             5    7     1      -0.9447553430E-01       5    8    1        -0.5184914790E+01      0.1259019090E+02
          0                 3           2             4    7     1      -0.2495568919E-01       4    7    1        -0.1339466145E+01      0.3268226100E+01
          0                 4           2             4    7     1       0.1481478133E-02       4    7    1         0.8174368727E-01      0.1993531365E+00
          0                 5           1             4    7     1      -0.5896339370E-04       4    7    1        -0.3344211917E-02      0.8157161891E-02

    ------------------------------------------------
       NWT REQUIRED            5 OUTER ITERATIONS 
       AND A TOTAL OF          9 INNER ITERATIONS.
    ------------------------------------------------

 NO OUTPUT CONTROL FOR STRESS PERIOD   21   TIME STEP   12
 
 SOLVING FOR HEAD 
                                                   Max.-Head-Change                         Max.-Flux-Residual
  Residual-Control   Outer-Iter.   Inner-Iter.     Column Row Layer    Maximum-Head-Change  Column Row Layer    Maximum-Flux-Residual          L2-NORM 
          0                 1           2             5    8     1       0.7525100083E-01       5    8    1         0.4088037377E+01      0.9786726679E+01
          0                 2           2             5    7     1      -0.9494669990E-01       5    8    1        -0.5209134805E+01      0.1265193638E+02
          0                 3           2             4    7     1      -0.2469471009E-01       4    7    1        -0.1325453242E+01      0.3234157855E+01
          0                 4           2             4    7     1       0.1660280748E-02       4    7    1         0.9160735067E-01      0.2235304530E+00
          0                 5           1             4    7     1      -0.6607980765E-04       4    7    1        -0.3747743354E-02      0.9146509818E-02

    ------------------------------------------------
       NWT REQUIRED            5 OUTER ITERATIONS 
       AND A TOTAL OF          9 INNER ITERATIONS.
    ------------------------------------------------

 NO OUTPUT CONTROL FOR STRESS PERIOD   21   TIME STEP   13
 
 SOLVING FOR HEAD 
                                                   Max.-Head-Change                         Max.-Flux-Residual
  Residual-Control   Outer-Iter.   Inner-Iter.     Column Row Layer    Maximum-Head-Change  Column Row Layer    Maximum-Flux-Residual          L2-NORM 
          0                 1           2             5    8     1       0.7553885056E-01       5    8    1         0.4103014693E+01      0.9842157008E+01
          0                 2           2             5    7     1      -0.9540585155E-01       5    8    1        -0.5232759170E+01      0.1271213190E+02
          0                 3           2             4    7     1      -0.2444360967E-01       4    7    1        -0.1311970703E+01      0.3201381443E+01
          0                 4           2             4    7     1       0.1664753337E-02       4    7    1         0.9185362280E-01      0.2241505759E+00
          0                 5           1             4    7     1      -0.6625781821E-04       4    7    1        -0.3757819323E-02      0.9171890921E-02

    ------------------------------------------------
       NWT REQUIRED            5 OUTER ITERATIONS 
       AND A TOTAL OF          9 INNER ITERATIONS.
    ------------------------------------------------

 NO OUTPUT CONTROL FOR STRESS PERIOD   21   TIME STEP   14
 
 SOLVING FOR HEAD 
                                                   Max.-Head-Change                         Max.-Flux-Residual
  Residual-Control   Outer-Iter.   Inner-Iter.     Column Row Layer    Maximum-Head-Change  Column Row Layer    Maximum-Flux-Residual          L2-NORM 
          0                 1           2             5    8     1       0.7583109707E-01       5    8    1         0.4118245724E+01      0.9897387803E+01
          0                 2           2             5    7     1      -0.9583445378E-01       5    8    1        -0.5254792431E+01      0.1276832483E+02
          0                 3           2             4    7     1      -0.2412118623E-01       4    7    1        -0.1294660684E+01      0.3159221549E+01
          0                 4           2             4    7     1       0.1642794455E-02       4    7    1         0.9064174418E-01      0.2211984017E+00
          0                 5           1             4    7     1      -0.6538384609E-04       4    7    1        -0.3708241256E-02      0.9051092050E-02

    ------------------------------------------------
       NWT REQUIRED            5 OUTER ITERATIONS 
       AND A TOTAL OF          9 INNER ITERATIONS.
    ------------------------------------------------

 NO OUTPUT CONTROL FOR STRESS PERIOD   21   TIME STEP   15
 
 SOLVING FOR HEAD 
                                                   Max.-Head-Change                         Max.-Flux-Residual
  Residual-Control   Outer-Iter.   Inner-Iter.     Column Row Layer    Maximum-Head-Change  Column Row Layer    Maximum-Flux-Residual          L2-NORM 
          0                 1           2             5    8     1       0.7612476091E-01       5    8    1         0.4133566500E+01      0.9952094831E+01
          0                 2           2             5    7     1      -0.9622950668E-01       5    8    1        -0.5275061788E+01      0.1282010779E+02
          0                 3           2             4    7     1      -0.2371197000E-01       4    7    1        -0.1272692969E+01      0.3105646365E+01
          0                 4           2             4    7     1       0.1614924484E-02       4    7    1         0.8910377618E-01      0.2174468926E+00
          0                 5           1             4    7     1      -0.6427461025E-04       4    7    1        -0.3645322722E-02      0.8897590133E-02

    ------------------------------------------------
       NWT REQUIRED            5 OUTER ITERATIONS 
       AND A TOTAL OF          9 INNER ITERATIONS.
    ------------------------------------------------

 NO OUTPUT CONTROL FOR STRESS PERIOD   21   TIME STEP   16
 
 SOLVING FOR HEAD 
                                                   Max.-Head-Change                         Max.-Flux-Residual
  Residual-Control   Outer-Iter.   Inner-Iter.     Column Row Layer    Maximum-Head-Change  Column Row Layer    Maximum-Flux-Residual          L2-NORM 
          0                 1           2             5    8     1       0.7641613909E-01       5    8    1         0.4148779488E+01      0.1000593492E+02
          0                 2           2             5    7     1      -0.9662172209E-01       5    8    1        -0.5295218801E+01      0.1287154404E+02
          0                 3           2             4    7     1      -0.2334268912E-01       4    7    1        -0.1252868673E+01      0.3057314987E+01
          0                 4           2             4    7     1       0.1589774338E-02       4    7    1         0.8771587012E-01      0.2140625527E+00
          0                 5           1             4    7     1      -0.6327362483E-04       4    7    1        -0.3588543279E-02      0.8759108921E-02

    ------------------------------------------------
       NWT REQUIRED            5 OUTER ITERATIONS 
       AND A TOTAL OF          9 INNER ITERATIONS.
    ------------------------------------------------

 NO OUTPUT CONTROL FOR STRESS PERIOD   21   TIME STEP   17
 
 SOLVING FOR HEAD 
                                                   Max.-Head-Change                         Max.-Flux-Residual
  Residual-Control   Outer-Iter.   Inner-Iter.     Column Row Layer    Maximum-Head-Change  Column Row Layer    Maximum-Flux-Residual          L2-NORM 
          0                 1           2             5    8     1       0.7670585719E-01       5    8    1         0.4163916635E+01      0.1005903861E+02
          0                 2           2             5    7     1      -0.9700225924E-01       5    8    1        -0.5314783627E+01      0.1292146174E+02
          0                 3           2             4    7     1      -0.2297352335E-01       4    7    1        -0.1233050759E+01      0.3008993274E+01
          0                 4           2             4    7     1       0.1564632029E-02       4    7    1         0.8632841029E-01      0.2106788825E+00
          0                 5           1             4    7     1      -0.6227295084E-04       4    7    1        -0.3531782058E-02      0.8620654333E-02

    ------------------------------------------------
       NWT REQUIRED            5 OUTER ITERATIONS 
       AND A TOTAL OF          9 INNER ITERATIONS.
    ------------------------------------------------

 NO OUTPUT CONTROL FOR STRESS PERIOD   21   TIME STEP   18
 
 SOLVING FOR HEAD 
                                                   Max.-Head-Change                         Max.-Flux-Residual
  Residual-Control   Outer-Iter.   Inner-Iter.     Column Row Layer    Maximum-Head-Change  Column Row Layer    Maximum-Flux-Residual          L2-NORM 
          0                 1           2             5    8     1       0.7699365850E-01       5    8    1         0.4178963349E+01      0.1011137253E+02
          0                 2           2             5    7     1      -0.9737442827E-01       5    8    1        -0.5333933623E+01      0.1297029632E+02
          0                 3           2             4    7     1      -0.2261622544E-01       4    7    1        -0.1213869951E+01      0.2962226176E+01
          0                 4           2             4    7     1       0.1540297989E-02       4    7    1         0.8498555442E-01      0.2074040635E+00
          0                 5           1             4    7     1      -0.6130444691E-04       4    7    1        -0.3476845609E-02      0.8486656385E-02

    ------------------------------------------------
       NWT REQUIRED            5 OUTER ITERATIONS 
       AND A TOTAL OF          9 INNER ITERATIONS.
    ------------------------------------------------

 NO OUTPUT CONTROL FOR STRESS PERIOD   21   TIME STEP   19
 
 SOLVING FOR HEAD 
                                                   Max.-Head-Change                         Max.-Flux-Residual
  Residual-Control   Outer-Iter.   Inner-Iter.     Column Row Layer    Maximum-Head-Change  Column Row Layer    Maximum-Flux-Residual          L2-NORM 
          0                 1           2             5    8     1       0.7727951516E-01       5    8    1         0.4193916927E+01      0.1016296218E+02
          0                 2           2             5    7     1      -0.9773775231E-01       5    8    1        -0.5352639908E+01      0.1301798182E+02
          0                 3           2             4    7     1      -0.2226659003E-01       4    7    1        -0.1195100556E+01      0.2916461232E+01
          0                 4           2             4    7     1       0.1516485807E-02       4    7    1         0.8367150131E-01      0.2041994277E+00
          0                 5           1             4    7     1      -0.6035671287E-04       4    7    1        -0.3423087468E-02      0.8355529360E-02

    ------------------------------------------------
       NWT REQUIRED            5 OUTER ITERATIONS 
       AND A TOTAL OF          9 INNER ITERATIONS.
    ------------------------------------------------

 NO OUTPUT CONTROL FOR STRESS PERIOD   21   TIME STEP   20
 
 SOLVING FOR HEAD 
                                                   Max.-Head-Change                         Max.-Flux-Residual
  Residual-Control   Outer-Iter.   Inner-Iter.     Column Row Layer    Maximum-Head-Change  Column Row Layer    Maximum-Flux-Residual          L2-NORM 
          0                 1           2             5    8     1       0.7756297375E-01       5    8    1         0.4208752183E+01      0.1021380542E+02
          0                 2           2             4    7     1      -0.9810334769E-01       5    8    1        -0.5370840788E+01      0.1306460376E+02
          0                 3           2             4    7     1      -0.2192530936E-01       4    7    1        -0.1176779599E+01      0.2871789328E+01
          0                 4           2             4    7     1       0.1493242630E-02       4    7    1         0.8238884342E-01      0.2010713042E+00
          0                 5           1             4    7     1      -0.5943162534E-04       4    7    1        -0.3370613701E-02      0.8227531664E-02

    ------------------------------------------------
       NWT REQUIRED            5 OUTER ITERATIONS 
       AND A TOTAL OF          9 INNER ITERATIONS.
    ------------------------------------------------

 NO OUTPUT CONTROL FOR STRESS PERIOD   21   TIME STEP   21
 
 SOLVING FOR HEAD 
                                                   Max.-Head-Change                         Max.-Flux-Residual
  Residual-Control   Outer-Iter.   Inner-Iter.     Column Row Layer    Maximum-Head-Change  Column Row Layer    Maximum-Flux-Residual          L2-NORM 
          0                 1           2             5    8     1       0.7785133651E-01       5    8    1         0.4223603774E+01      0.1026391492E+02
          0                 2           2             4    7     1      -0.9847088370E-01       5    8    1        -0.5388846579E+01      0.1311019812E+02
          0                 3           2             4    7     1      -0.2159182057E-01       4    7    1        -0.1158876998E+01      0.2828136809E+01
          0                 4           2             4    7     1       0.1470530123E-02       4    7    1         0.8113547445E-01      0.1980145655E+00
          0                 5           1             4    7     1      -0.5852765840E-04       4    7    1        -0.3319338129E-02      0.8102455118E-02

    ------------------------------------------------
       NWT REQUIRED            5 OUTER ITERATIONS 
       AND A TOTAL OF          9 INNER ITERATIONS.
    ------------------------------------------------

 NO OUTPUT CONTROL FOR STRESS PERIOD   21   TIME STEP   22
 
 SOLVING FOR HEAD 
                                                   Max.-Head-Change                         Max.-Flux-Residual
  Residual-Control   Outer-Iter.   Inner-Iter.     Column Row Layer    Maximum-Head-Change  Column Row Layer    Maximum-Flux-Residual          L2-NORM 
          0                 1           2             5    8     1       0.7813551738E-01       5    8    1         0.4238515515E+01      0.1031330204E+02
          0                 2           2             4    7     1      -0.9883041757E-01       5    8    1        -0.5406396642E+01      0.1315481134E+02
          0                 3           2             4    7     1      -0.2126566976E-01       4    7    1        -0.1141368452E+01      0.2785444359E+01
          0                 4           2             4    7     1       0.1448317374E-02       4    7    1         0.7990969322E-01      0.1950250437E+00
          0                 5           1             4    7     1      -0.5764358258E-04       4    7    1        -0.3269191187E-02      0.7980127492E-02

    ------------------------------------------------
       NWT REQUIRED            5 OUTER ITERATIONS 
       AND A TOTAL OF          9 INNER ITERATIONS.
    ------------------------------------------------

 NO OUTPUT CONTROL FOR STRESS PERIOD   21   TIME STEP   23
 
 SOLVING FOR HEAD 
                                                   Max.-Head-Change                         Max.-Flux-Residual
  Residual-Control   Outer-Iter.   Inner-Iter.     Column Row Layer    Maximum-Head-Change  Column Row Layer    Maximum-Flux-Residual          L2-NORM 
          0                 1           2             5    8     1       0.7841682130E-01       5    8    1         0.4253279731E+01      0.1036195661E+02
          0                 2           2             4    7     1      -0.9918226013E-01       5    8    1        -0.5423580047E+01      0.1319847951E+02
          0                 3           2             4    7     1      -0.2094679081E-01       4    7    1        -0.1124250331E+01      0.2743703305E+01
          0                 4           2             4    7     1       0.1426599879E-02       4    7    1         0.7871124554E-01      0.1921021400E+00
          0                 5           1             4    7     1      -0.5677921759E-04       4    7    1        -0.3220162460E-02      0.7860527964E-02

    ------------------------------------------------
       NWT REQUIRED            5 OUTER ITERATIONS 
       AND A TOTAL OF          9 INNER ITERATIONS.
    ------------------------------------------------

 NO OUTPUT CONTROL FOR STRESS PERIOD   21   TIME STEP   24
 
 SOLVING FOR HEAD 
                                                   Max.-Head-Change                         Max.-Flux-Residual
  Residual-Control   Outer-Iter.   Inner-Iter.     Column Row Layer    Maximum-Head-Change  Column Row Layer    Maximum-Flux-Residual          L2-NORM 
          0                 1           2             5    8     1       0.7869494278E-01       5    8    1         0.4267879459E+01      0.1040989799E+02
          0                 2           2             4    7     1      -0.9952670538E-01       5    8    1        -0.5440409881E+01      0.1324124342E+02
          0                 3           2             4    7     1      -0.2063458567E-01       4    7    1        -0.1107490535E+01      0.2702835190E+01
          0                 4           2             4    7     1       0.1405336908E-02       4    7    1         0.7753788409E-01      0.1892403460E+00
          0                 5           1             4    7     1      -0.5593294323E-04       4    7    1        -0.3172160006E-02      0.7743426818E-02

    ------------------------------------------------
       NWT REQUIRED            5 OUTER ITERATIONS 
       AND A TOTAL OF          9 INNER ITERATIONS.
    ------------------------------------------------

 NO OUTPUT CONTROL FOR STRESS PERIOD   21   TIME STEP   25
 
 SOLVING FOR HEAD 
                                                   Max.-Head-Change                         Max.-Flux-Residual
  Residual-Control   Outer-Iter.   Inner-Iter.     Column Row Layer    Maximum-Head-Change  Column Row Layer    Maximum-Flux-Residual          L2-NORM 
          0                 1           2             5    8     1       0.7897015341E-01       5    8    1         0.4282329506E+01      0.1045713082E+02
          0                 2           2             4    7     1      -0.9986405962E-01       5    8    1        -0.5456902406E+01      0.1328313981E+02
          0                 3           2             4    7     1      -0.2032902406E-01       4    7    1        -0.1091087432E+01      0.2662836182E+01
          0                 4           2             4    7     1       0.1384526398E-02       4    7    1         0.7638949468E-01      0.1864394199E+00
          0                 5           1             4    7     1      -0.5510467696E-04       4    7    1        -0.3125179157E-02      0.7628818653E-02

    ------------------------------------------------
       NWT REQUIRED            5 OUTER ITERATIONS 
       AND A TOTAL OF          9 INNER ITERATIONS.
    ------------------------------------------------

 NO OUTPUT CONTROL FOR STRESS PERIOD   21   TIME STEP   26
 
 SOLVING FOR HEAD 
                                                   Max.-Head-Change                         Max.-Flux-Residual
  Residual-Control   Outer-Iter.   Inner-Iter.     Column Row Layer    Maximum-Head-Change  Column Row Layer    Maximum-Flux-Residual          L2-NORM 
          0                 1           2             5    8     1       0.7924230671E-01       5    8    1         0.4296621040E+01      0.1050366779E+02
          0                 2           2             4    7     1      -0.1001945621E+00       5    8    1        -0.5473068659E+01      0.1332419907E+02
          0                 3           2             4    7     1      -0.2002974276E-01       4    7    1        -0.1075021527E+01      0.2623658602E+01
          0                 4           2             4    7     1       0.1364143614E-02       4    7    1         0.7526471243E-01      0.1836959968E+00
          0                 5           1             4    7     1      -0.5429343407E-04       4    7    1        -0.3079164083E-02      0.7516559566E-02

    ------------------------------------------------
       NWT REQUIRED            5 OUTER ITERATIONS 
       AND A TOTAL OF          9 INNER ITERATIONS.
    ------------------------------------------------

 NO OUTPUT CONTROL FOR STRESS PERIOD   21   TIME STEP   27
 
 SOLVING FOR HEAD 
                                                   Max.-Head-Change                         Max.-Flux-Residual
  Residual-Control   Outer-Iter.   Inner-Iter.     Column Row Layer    Maximum-Head-Change  Column Row Layer    Maximum-Flux-Residual          L2-NORM 
          0                 1           2             5    8     1       0.7951140312E-01       5    8    1         0.4310754046E+01      0.1054952032E+02
          0                 2           2             4    7     1      -0.1005185042E+00       5    8    1        -0.5488921991E+01      0.1336445573E+02
          0                 3           2             4    7     1      -0.1973643711E-01       4    7    1        -0.1059276461E+01      0.2585262579E+01
          0                 4           2             4    7     1       0.1343833304E-02       4    7    1         0.7414107737E-01      0.1810072590E+00
          0                 5           1             4    7     1      -0.5348507561E-04       4    7    1        -0.3033195909E-02      0.7406541120E-02

    ------------------------------------------------
       NWT REQUIRED            5 OUTER ITERATIONS 
       AND A TOTAL OF          9 INNER ITERATIONS.
    ------------------------------------------------

 NO OUTPUT CONTROL FOR STRESS PERIOD   21   TIME STEP   28
 
 SOLVING FOR HEAD 
                                                   Max.-Head-Change                         Max.-Flux-Residual
  Residual-Control   Outer-Iter.   Inner-Iter.     Column Row Layer    Maximum-Head-Change  Column Row Layer    Maximum-Flux-Residual          L2-NORM 
          0                 1           2             5    8     1       0.7977764080E-01       5    8    1         0.4324728754E+01      0.1059469042E+02
          0                 2           2             4    7     1      -0.1008366288E+00       5    8    1        -0.5504473867E+01      0.1340393841E+02
          0                 3           2             4    7     1      -0.1944940768E-01       4    7    1        -0.1043843883E+01      0.2547627518E+01
          0                 4           2             4    7     1       0.1324619440E-02       4    7    1         0.7308194894E-01      0.1783718621E+00
          0                 5           1             4    7     1      -0.5272035656E-04       4    7    1        -0.2989866732E-02      0.7298706177E-02

    ------------------------------------------------
       NWT REQUIRED            5 OUTER ITERATIONS 
       AND A TOTAL OF          9 INNER ITERATIONS.
    ------------------------------------------------

 NO OUTPUT CONTROL FOR STRESS PERIOD   21   TIME STEP   29
 
 SOLVING FOR HEAD 
                                                   Max.-Head-Change                         Max.-Flux-Residual
  Residual-Control   Outer-Iter.   Inner-Iter.     Column Row Layer    Maximum-Head-Change  Column Row Layer    Maximum-Flux-Residual          L2-NORM 
          0                 1           2             5    8     1       0.8004105121E-01       5    8    1         0.4338556511E+01      0.1063922344E+02
          0                 2           2             4    7     1      -0.1011468333E+00       5    8    1        -0.5519736868E+01      0.1344268083E+02
          0                 3           2             4    7     1      -0.1916759411E-01       4    7    1        -0.1028716484E+01      0.2510723399E+01
          0                 4           2             4    7     1       0.1305426305E-02       4    7    1         0.7202287121E-01      0.1757876251E+00
          0                 5           1             4    7     1      -0.5195646275E-04       4    7    1        -0.2946539639E-02      0.7192960202E-02

    ------------------------------------------------
       NWT REQUIRED            5 OUTER ITERATIONS 
       AND A TOTAL OF          9 INNER ITERATIONS.
    ------------------------------------------------

 NO OUTPUT CONTROL FOR STRESS PERIOD   21   TIME STEP   30



 STREAM LISTING     PERIOD     21   STEP       30

 LAYER ROW COL. STREAM  RCH.  FLOW INTO     FLOW TO   FLOW OUT OF   OVRLND.     DIRECT     STREAM       STREAM     STREAM     STREAM   STREAMBED  STREAMBED
                SEG.NO.  NO.  STRM. RCH.    AQUIFER    STRM. RCH.    RUNOFF     PRECIP       ET          HEAD       DEPTH      WIDTH   CONDCTNC.   GRADIENT

   1    1    1     1     1    1.3875E+01  1.7894E-01   1.3696E+01  0.000E+00  0.000E+00  0.000E+00  1.09404E+03  9.877E-01  9.972E+00  4.487E-02  1.329E+00
   1    2    2     1     2    1.3696E+01  2.7574E-01   1.3421E+01  0.000E+00  0.000E+00  0.000E+00  1.08904E+03  9.829E-01  9.890E+00  6.923E-02  1.328E+00
   1    3    3     1     3    1.3421E+01  2.3381E-01   1.3187E+01  0.000E+00  0.000E+00  0.000E+00  1.08340E+03  9.775E-01  9.797E+00  5.878E-02  1.326E+00
   1    3    4     1     4    1.3187E+01  2.1419E-01   1.2973E+01  0.000E+00  0.000E+00  0.000E+00  1.07838E+03  9.727E-01  9.715E+00  5.392E-02  1.324E+00
   1    4    5     2     1    1.0973E+01  2.9101E-01   1.0682E+01  0.000E+00  0.000E+00  0.000E+00  1.07266E+03  7.309E-01  1.200E+01  7.800E-02  1.244E+00
   1    5    6     2     2    1.0682E+01  2.2323E-01   1.0458E+01  0.000E+00  0.000E+00  0.000E+00  1.06723E+03  7.204E-01  1.200E+01  6.000E-02  1.240E+00
   1    6    6     2     3    1.0458E+01  2.2268E-01   1.0236E+01  0.000E+00  0.000E+00  0.000E+00  1.06250E+03  7.113E-01  1.200E+01  6.000E-02  1.237E+00
   1    7    6     2     4    1.0236E+01  2.2212E-01   1.0013E+01  0.000E+00  0.000E+00  0.000E+00  1.05778E+03  7.021E-01  1.200E+01  6.000E-02  1.234E+00
   1    8    6     2     5    1.0013E+01  2.2157E-01   9.7919E+00  0.000E+00  0.000E+00  0.000E+00  1.05305E+03  6.928E-01  1.200E+01  6.000E-02  1.231E+00
   1    3    5     3     1    2.0000E+00  2.8252E-01   1.7175E+00  0.000E+00  0.000E+00  0.000E+00  1.07555E+03  1.909E+00  9.636E+00  7.227E-02  1.955E+00
   1    3    6     3     2    1.7175E+00  2.4905E-01   1.4684E+00  0.000E+00  0.000E+00  0.000E+00  1.07264E+03  1.727E+00  8.909E+00  6.682E-02  1.864E+00
   1    3    7     3     3    1.4684E+00  1.9718E-01   1.2712E+00  0.000E+00  0.000E+00  0.000E+00  1.06987E+03  1.555E+00  8.218E+00  5.547E-02  1.777E+00
   1    4    8     3     4    1.2712E+00  2.2567E-01   1.0456E+00  0.000E+00  0.000E+00  0.000E+00  1.06682E+03  1.364E+00  7.455E+00  6.709E-02  1.682E+00
   1    5    8     3     5    1.0456E+00  1.5790E-01   8.8768E-01  0.000E+00  0.000E+00  0.000E+00  1.06362E+03  1.164E+00  6.655E+00  4.991E-02  1.582E+00
   1    6    8     3     6    8.8768E-01  5.5980E-02   8.3170E-01  0.000E+00  0.000E+00  0.000E+00  1.06158E+03  1.036E+00  6.145E+00  1.844E-02  1.518E+00
   1    5   10     4     1    1.0000E+01  9.0919E-02   9.9091E+00  0.000E+00  0.000E+00  0.000E+00  1.07836E+03  6.368E-01  1.000E+01  2.500E-02  1.212E+00
   1    5    9     4     2    9.9091E+00  1.8158E-01   9.7275E+00  0.000E+00  0.000E+00  0.000E+00  1.07154E+03  6.315E-01  1.000E+01  5.000E-02  1.211E+00
   1    6    8     4     3    9.7275E+00  1.2689E-01   9.6006E+00  0.000E+00  0.000E+00  0.000E+00  1.06381E+03  6.256E-01  1.000E+01  3.500E-02  1.209E+00
   1    6    8     5     1    1.0432E+01  2.2686E-01   1.0205E+01  0.000E+00  0.000E+00  0.000E+00  1.05868E+03  6.790E-01  1.542E+01  6.166E-02  1.226E+00
   1    7    7     5     2    1.0205E+01  2.7894E-01   9.9265E+00  0.000E+00  0.000E+00  0.000E+00  1.05417E+03  6.732E-01  1.519E+01  7.594E-02  1.224E+00
   1    8    7     5     3    9.9265E+00  1.9221E-01   9.7343E+00  0.000E+00  0.000E+00  0.000E+00  1.04992E+03  6.676E-01  1.497E+01  5.241E-02  1.223E+00
   1    8    6     5     4    9.7343E+00  1.3577E-01   9.5985E+00  0.000E+00  0.000E+00  0.000E+00  1.04691E+03  6.637E-01  1.482E+01  3.706E-02  1.221E+00
   1    9    6     6     1    9.5985E+00  2.2097E-01   9.3776E+00  0.000E+00  0.000E+00  0.000E+00  1.04341E+03  6.828E-01  1.200E+01  6.000E-02  1.228E+00
   1   10    7     6     2    9.3776E+00  2.2039E-01   9.1572E+00  0.000E+00  0.000E+00  0.000E+00  1.03885E+03  6.732E-01  1.200E+01  6.000E-02  1.224E+00
   1   11    7     6     3    9.1572E+00  2.1981E-01   8.9374E+00  0.000E+00  0.000E+00  0.000E+00  1.03430E+03  6.636E-01  1.200E+01  6.000E-02  1.221E+00
   1   12    7     6     4    8.9374E+00  2.1923E-01   8.7181E+00  0.000E+00  0.000E+00  0.000E+00  1.02974E+03  6.539E-01  1.200E+01  6.000E-02  1.218E+00
   1   13    7     6     5    8.7181E+00 -2.4635E-02   8.7428E+00  0.000E+00  0.000E+00  0.000E+00  1.02656E+03  6.495E-01  1.200E+01  2.400E-01 -3.421E-02
   1   14    9     7     1    1.5000E+02  1.3756E+00   1.4862E+02  0.000E+00  0.000E+00  0.000E+00  1.03987E+03  2.288E+00  5.529E+01  5.593E-01  8.198E-01
   1   13    8     7     2    1.4862E+02  1.9621E+00   1.4666E+02  0.000E+00  0.000E+00  0.000E+00  1.03478E+03  2.279E+00  5.525E+01  6.147E-01  1.064E+00
   1   13    7     7     3    1.4666E+02  1.6903E+00   1.4497E+02  0.000E+00  0.000E+00  0.000E+00  1.02969E+03  2.269E+00  5.521E+01  5.584E-01  1.009E+00
   1   13    6     8     1    1.5371E+02  1.0460E+00   1.5267E+02  0.000E+00  0.000E+00  0.000E+00  1.02471E+03  2.839E+00  4.117E+01  4.195E-01  8.311E-01
   1   13    5     8     2    1.5267E+02  3.0628E-01   1.5236E+02  0.000E+00  0.000E+00  0.000E+00  1.01846E+03  2.834E+00  4.110E+01  4.188E-01  2.438E-01
   1   13    4     8     3    1.5236E+02 -1.9653E+00   1.5433E+02  0.000E+00  0.000E+00  0.000E+00  1.01222E+03  2.840E+00  4.118E+01  4.197E+00 -1.561E-01
   1   13    3     8     4    1.5433E+02 -3.4102E+00   1.5774E+02  0.000E+00  0.000E+00  0.000E+00  1.00598E+03  2.859E+00  4.145E+01  4.224E+00 -2.691E-01
   1   13    2     8     5    1.5774E+02 -2.5243E+00   1.6026E+02  0.000E+00  0.000E+00  0.000E+00  9.99754E+02  2.879E+00  4.175E+01  4.254E+00 -1.978E-01
   1   13    1     8     6    1.6026E+02 -1.9686E+00   1.6223E+02  0.000E+00  0.000E+00  0.000E+00  9.94769E+02  2.894E+00  4.197E+01  2.566E+00 -2.557E-01
   1    8    6     9     1    9.7919E+00  0.0000E+00   9.7919E+00  0.000E+00  0.000E+00  0.000E+00  1.08099E+03  2.238E+00  4.000E+00  0.000E+00  1.746E+00
   1    8    5     9     2    9.7919E+00  0.0000E+00   9.7919E+00  0.000E+00  0.000E+00  0.000E+00  1.08049E+03  2.238E+00  4.000E+00  0.000E+00  1.746E+00





UNSATURATED ZONE PACKAGE VOLUMETRIC BUDGET FOR  TIME STEP    30 STRESS PERIOD   21
  ------------------------------------------------------------------------------



     CUMULATIVE VOLUMES      L**3       RATES FOR THIS TIME STEP      L**3/T
     ------------------                 ------------------------

           IN:                                      IN:
           ---                                      ---
        INFILTRATION =  1057154732.2630          INFILTRATION =          49.6065

          OUT:                                     OUT:
          ----                                     ----
              UZF ET =   822280653.0306                UZF ET =          49.5848
        UZF RECHARGE =       73224.0000          UZF RECHARGE =       0.0000E+00

            IN - OUT =   234800855.2324              IN - OUT =       2.1658E-02

          STORAGE:                                 STORAGE:
          --------                                 --------
      STORAGE CHANGE =   234801063.0139        STORAGE CHANGE =       2.1658E-02

 PERCENT DISCREPANCY IS DIFFERENCE BETWEEN IN-OUT MINUS CHANGE IN STORAGE
 DIVIDED BY THE AVERAGE OF IN AND OUT TIMES 100

 PERCENT DISCREPANCY =          -0.00     PERCENT DISCREPANCY =           0.00






1
  VOLUMETRIC BUDGET FOR AGRICULTURAL FIELDS AT  END OF TIME STEP   30, STRESS PERIOD  21
  ------------------------------------------------------------------------------

     CUMULATIVE VOLUMES      L**3       RATES FOR THIS TIME STEP      L**3/T
     ------------------                 ------------------------

           IN:                                      IN:
           ---                                      ---
               AG WELLS  =   651849984.0000                 AG WELLS  =          38.9668
      DIVERSION SEGMENTS =   360728160.0000        DIVERSION SEGMENTS =           9.7919
       IRRIGATION PONDS  =           0.0000         IRRIGATION PONDS  =           0.0000
           GW IRRIGATION =           0.0000             GW IRRIGATION =           0.0000
           SW IRRIGATION =           0.0000             SW IRRIGATION =           0.0000
        SYSTEM LOSSES GW =           0.0000          SYSTEM LOSSES GW =           0.0000
        SYSTEM LOSSES SW =           0.0000          SYSTEM LOSSES SW =           0.0000

                TOTAL IN =  1012578176.0000                  TOTAL IN =          48.7588

          OUT:                                     OUT:
          ----                                     ----
               AG WELLS  =           0.0000                 AG WELLS  =           0.0000
      DIVERSION SEGMENTS =           0.0000        DIVERSION SEGMENTS =           0.0000
       IRRIGATION PONDS  =           0.0000         IRRIGATION PONDS  =           0.0000
           GW IRRIGATION =   651849984.0000             GW IRRIGATION =          38.9668
           SW IRRIGATION =   360734912.0000             SW IRRIGATION =           9.7921
        SYSTEM LOSSES GW =           0.0000          SYSTEM LOSSES GW =           0.0000
        SYSTEM LOSSES SW =           0.0000          SYSTEM LOSSES SW =           0.0000

               TOTAL OUT =  1012584896.0000                 TOTAL OUT =          48.7590

                IN - OUT =       -6720.0000                  IN - OUT =      -1.9455E-04

     PERCENT DISCREPANCY =          -0.00         PERCENT DISCREPANCY =          -0.00



1
  VOLUMETRIC BUDGET FOR ENTIRE MODEL AT END OF TIME STEP   30, STRESS PERIOD  21
  ------------------------------------------------------------------------------

     CUMULATIVE VOLUMES      L**3       RATES FOR THIS TIME STEP      L**3/T
     ------------------                 ------------------------

           IN:                                      IN:
           ---                                      ---
             STORAGE     =   915940288.0000               STORAGE     =          37.2409
       CONSTANT HEAD     =           0.0000         CONSTANT HEAD     =           0.0000
     HEAD DEP BOUNDS     =    15176387.0000       HEAD DEP BOUNDS     =           0.2885
      STREAM LEAKAGE     =   622839552.0000        STREAM LEAKAGE     =          11.7453
        UZF RECHARGE     =       73223.9531          UZF RECHARGE     =           0.0000
               GW ET     =           0.0000                 GW ET     =           0.0000
     SURFACE LEAKAGE     =           0.0000       SURFACE LEAKAGE     =           0.0000
           AG WELLS      =           0.0000             AG WELLS      =           0.0000

                TOTAL IN =  1554029440.0000                  TOTAL IN =          49.2747

          OUT:                                     OUT:
          ----                                     ----
             STORAGE     =   351351680.0000               STORAGE     =           0.1282
       CONSTANT HEAD     =           0.0000         CONSTANT HEAD     =           0.0000
     HEAD DEP BOUNDS     =    15174296.0000       HEAD DEP BOUNDS     =           0.2864
      STREAM LEAKAGE     =   535657696.0000        STREAM LEAKAGE     =           9.8931
        UZF RECHARGE     =           0.0000          UZF RECHARGE     =           0.0000
               GW ET     =           0.0000                 GW ET     =           0.0000
     SURFACE LEAKAGE     =           0.0000       SURFACE LEAKAGE     =           0.0000
           AG WELLS      =   651849984.0000             AG WELLS      =          38.9668

               TOTAL OUT =  1554033664.0000                 TOTAL OUT =          49.2745

                IN - OUT =       -4224.0000                  IN - OUT =       2.2125E-04

     PERCENT DISCREPANCY =          -0.00         PERCENT DISCREPANCY =           0.00






         TIME SUMMARY AT END OF TIME STEP   30 IN STRESS PERIOD   21
                    SECONDS     MINUTES      HOURS       DAYS        YEARS
                    -----------------------------------------------------------
   TIME STEP LENGTH  87667.      1461.1      24.352      1.0147     2.77799E-03
 STRESS PERIOD TIME 2.63000E+06  43833.      730.56      30.440     8.33397E-02
         TOTAL TIME 5.26866E+07 8.78110E+05  14635.      609.80      1.6695    
1
1
                            STRESS PERIOD NO.   22, LENGTH =   2630000.    
                            -----------------------------------------------

                              NUMBER OF TIME STEPS =    30

                               MULTIPLIER FOR DELT =     1.000

                            INITIAL TIME STEP SIZE =   87666.66    

 REUSING NON-PARAMETER GHB CELLS FROM LAST STRESS PERIOD

      2 GHB CELLS

 REUSING STREAM SEGMENT DATA FROM LAST STRESS PERIOD



            AREAL INFILTRATION RATE
 READING ON UNIT   19 WITH FORMAT: (FREE)              

            1           2           3           4           5           6           7           8           9          10
 ........................................................................................................................
   1   1.0000E-10  2.0000E-10   0.000       0.000       0.000       0.000       0.000       0.000       0.000       0.000    
   2   2.0000E-10  1.0000E-10  2.0000E-10   0.000       0.000      8.0000E-10  8.0000E-10  5.0000E-10   0.000       0.000    
   3    0.000      5.0000E-10  1.0000E-10  1.0000E-10  8.0000E-10  8.0000E-10  5.0000E-10  5.0000E-10   0.000       0.000    
   4   8.0000E-10  5.0000E-10  1.0000E-10  1.0000E-10  1.0000E-10  1.0000E-10  1.0000E-10  1.0000E-10  2.0000E-10   0.000    
   5   8.0000E-10  5.0000E-10  1.0000E-10  1.0000E-10  1.0000E-10  1.0000E-10  1.0000E-10  1.0000E-10  1.0000E-10  1.0000E-10
   6   8.0000E-10  5.0000E-10  5.0000E-10  2.0000E-10  2.0000E-10  1.0000E-10  1.0000E-10  1.0000E-10  1.0000E-10  5.0000E-10
   7   8.0000E-10  5.0000E-10  5.0000E-10  2.0000E-10  2.0000E-10  1.0000E-10  1.0000E-10  2.0000E-10  2.0000E-10   0.000    
   8    0.000      5.0000E-10  5.0000E-10  2.0000E-10  2.0000E-10  1.0000E-10  1.0000E-10  2.0000E-10  5.0000E-10   0.000    
   9    0.000      5.0000E-10  5.0000E-10  2.0000E-10  2.0000E-10  1.0000E-10  1.0000E-10  2.0000E-10  5.0000E-10   0.000    
  10    0.000      5.0000E-10  5.0000E-10  2.0000E-10  2.0000E-10  1.0000E-10  1.0000E-10  2.0000E-10  5.0000E-10  8.0000E-10
  11    0.000      1.0000E-10  1.0000E-10  1.0000E-10  1.0000E-10  1.0000E-10  1.0000E-10  2.0000E-10  5.0000E-10   0.000    
  12   1.0000E-10  1.0000E-10  1.0000E-10  1.0000E-10  1.0000E-10  1.0000E-10  1.0000E-10  1.0000E-10  2.0000E-10   0.000    
  13   1.0000E-10  1.0000E-10  2.0000E-10  2.0000E-10  2.0000E-10  2.0000E-10  2.0000E-10  1.0000E-10  1.0000E-10   0.000    
  14    0.000      2.0000E-10  5.0000E-10  5.0000E-10  5.0000E-10  5.0000E-10  5.0000E-10  2.0000E-10  1.0000E-10   0.000    
  15    0.000       0.000      8.0000E-10  8.0000E-10  8.0000E-10  8.0000E-10   0.000       0.000       0.000       0.000    

                  ET RATE =  7.500000E-08

 USING ET EXTINCTION DEPTH FROM PREVIOUS STRESS PERIOD. CURRENT PERIOD IS:      22

 USING EXTINCTION WATER CONTENT FROM PREVIOUS STRESS PERIOD. CURRENT PERIOD IS:      22

 USING AIR ENTRY PRESSURE FROM PREVIOUS STRESS PERIOD. CURRENT PERIOD IS:      22

 USING ROOT PRESSURE HEAD FROM PREVIOUS STRESS PERIOD. CURRENT PERIOD IS:      22

 USING ROOT ACTIVITY FROM PREVIOUS STRESS PERIOD. CURRENT PERIOD IS:      22

 PROCESSING AG STRESS PERIOD DATA

 READING AG STRESS PERIOD DATA

 READING IRRIGATION SEGMENT

 READING IRRIGATION WELL

 READING SUPPLEMENTAL WELL

 NO IRRPOND OR REUSING IRRPOND DATA FROM LAST STRESS PERIOD

 END PROCESSING AG STRESS PERIOD DATA OPTIONS
 
 SOLVING FOR HEAD 
                                                   Max.-Head-Change                         Max.-Flux-Residual
  Residual-Control   Outer-Iter.   Inner-Iter.     Column Row Layer    Maximum-Head-Change  Column Row Layer    Maximum-Flux-Residual          L2-NORM 
          0                 1           2             5    8     1       0.8029884121E-01       5    8    1         0.4352236474E+01      0.1068469377E+02
          0                 2           2             5    8     1      -0.2346172612E-01       5    8    1        -0.1296916996E+01      0.3116997556E+01
          0                 3           2             5    8     1       0.1597656584E-02       5    8    1         0.9078423307E-01      0.2181899495E+00
          0                 4           1             5    8     1      -0.6357224966E-04       5    8    1        -0.3713080294E-02      0.8923981347E-02

    ------------------------------------------------
       NWT REQUIRED            4 OUTER ITERATIONS 
       AND A TOTAL OF          7 INNER ITERATIONS.
    ------------------------------------------------

 NO OUTPUT CONTROL FOR STRESS PERIOD   22   TIME STEP    1
 
 SOLVING FOR HEAD 
                                                   Max.-Head-Change                         Max.-Flux-Residual
  Residual-Control   Outer-Iter.   Inner-Iter.     Column Row Layer    Maximum-Head-Change  Column Row Layer    Maximum-Flux-Residual          L2-NORM 
          0                 1           2             5    8     1       0.7752060589E-01       5    8    1         0.4198345620E+01      0.1041367686E+02
          0                 2           2             5    8     1      -0.7800362219E-02       5    8    1        -0.4341330094E+00      0.1073951868E+01
          0                 3           2             4    7     1      -0.8917247023E-02       4    7    1        -0.4786112287E+00      0.1171380956E+01
          0                 4           2             4    7     1       0.9607980599E-02       4    7    1         0.5300312369E+00      0.1297775909E+01
          0                 5           2             4    7     1      -0.2482219124E-02       4    7    1        -0.1407493628E+00      0.3464806084E+00
          0                 6           2             4    7     1       0.7424153860E-03       5    8    1         0.4326830626E-01      0.1086319467E+00
          0                 7           2             4    7     1       0.1479565501E-02       4    7    1         0.8622578173E-01      0.2112298846E+00
          0                 8           2             4    7     1      -0.2371925853E-02       5    8    1        -0.1420609573E+00      0.3491495029E+00
          0                 9           2             4    7     1      -0.1001056546E-03       4    7    1        -0.5995356117E-02      0.1469689630E-01
          0                10           2             4    7     1      -0.2538393858E-03       4    7    1        -0.1520266932E-01      0.3723857874E-01
                                                   Max.-Head-Change                         Max.-Flux-Residual
  Residual-Control   Outer-Iter.   Inner-Iter.     Column Row Layer    Maximum-Head-Change  Column Row Layer    Maximum-Flux-Residual          L2-NORM 
          0                11           2             4    7     1      -0.3069043756E-03       4    7    1        -0.1838058953E-01      0.4502284065E-01
          0                12           2             4    7     1      -0.9459237163E-03       4    7    1        -0.5665107592E-01      0.1387659573E+00
          0                13           2             4    7     1      -0.3172357610E-03       4    7    1        -0.1899890314E-01      0.4653684059E-01
          0                14           2             4    7     1      -0.1150372531E-02       4    7    1        -0.6889401412E-01      0.1687548611E+00
          0                15           2             4    7     1      -0.2893650472E-03       4    7    1        -0.1732937798E-01      0.4244720301E-01
          0                16           2             4    7     1      -0.3015911557E-03       4    7    1        -0.1806143088E-01      0.4424098555E-01
          0                17           2             4    7     1      -0.2236118934E-02       4    7    1        -0.1339135013E+00      0.3280194740E+00
          0                18           2             4    7     1      -0.3693885861E-03       4    7    1        -0.2212105941E-01      0.5418357795E-01
          0                19           2             4    7     1      -0.2928360723E-03       4    7    1        -0.1753655535E-01      0.4295518594E-01
          0                20           2             4    7     1      -0.2940445993E-03       4    7    1        -0.1760875571E-01      0.4313219535E-01
                                                   Max.-Head-Change                         Max.-Flux-Residual
  Residual-Control   Outer-Iter.   Inner-Iter.     Column Row Layer    Maximum-Head-Change  Column Row Layer    Maximum-Flux-Residual          L2-NORM 
          0                21           2             4    7     1      -0.3034972347E-03       4    7    1        -0.1817463505E-01      0.4451832037E-01
          0                22           2             4    7     1      -0.3198811843E-03       4    7    1        -0.1915557250E-01      0.4692110934E-01
          0                23           2             4    7     1      -0.2803237669E-02       4    7    1        -0.1678657908E+00      0.4111852459E+00
          0                24           2             4    7     1      -0.4196659596E-03       4    7    1        -0.2513036158E-01      0.6155441895E-01
          0                25           2             4    7     1      -0.3255576243E-03       4    7    1        -0.1949487034E-01      0.4775198695E-01
          0                26           2             4    7     1      -0.3049787166E-02       4    7    1        -0.1826241499E+00      0.4473356743E+00
          0                27           2             4    7     1      -0.1252478708E-03       4    7    1        -0.7499707920E-02      0.1836879953E-01
          0                28           1             4    7     1      -0.5142392194E-05       4    7    1        -0.3079060102E-03      0.7541963996E-03

    ------------------------------------------------
       NWT REQUIRED           28 OUTER ITERATIONS 
       AND A TOTAL OF         55 INNER ITERATIONS.
    ------------------------------------------------

 NO OUTPUT CONTROL FOR STRESS PERIOD   22   TIME STEP    2
 
 SOLVING FOR HEAD 
                                                   Max.-Head-Change                         Max.-Flux-Residual
  Residual-Control   Outer-Iter.   Inner-Iter.     Column Row Layer    Maximum-Head-Change  Column Row Layer    Maximum-Flux-Residual          L2-NORM 
          0                 1           2             5    8     1       0.7496927597E-01       5    8    1         0.4057094985E+01      0.1016107742E+02
          0                 2           2             5    8     1      -0.7596884865E-02       5    8    1        -0.4224689025E+00      0.1054404413E+01
          0                 3           2             4    7     1      -0.9191654935E-02       4    7    1        -0.4933189335E+00      0.1208947694E+01
          0                 4           2             4    7     1       0.9738494983E-02       4    7    1         0.5372294860E+00      0.1315501971E+01
          0                 5           1             4    7     1       0.4855943996E-04       5    6    1         0.2684055039E-02      0.6877203573E-02

    ------------------------------------------------
       NWT REQUIRED            5 OUTER ITERATIONS 
       AND A TOTAL OF          9 INNER ITERATIONS.
    ------------------------------------------------

 NO OUTPUT CONTROL FOR STRESS PERIOD   22   TIME STEP    3
 
 SOLVING FOR HEAD 
                                                   Max.-Head-Change                         Max.-Flux-Residual
  Residual-Control   Outer-Iter.   Inner-Iter.     Column Row Layer    Maximum-Head-Change  Column Row Layer    Maximum-Flux-Residual          L2-NORM 
          0                 1           2             5    6     1       0.7218582260E-01       5    8    1         0.3896038722E+01      0.9869013900E+01
          0                 2           2             5    7     1      -0.3039837298E-01       5    8    1        -0.1666950347E+01      0.4064831447E+01
          0                 3           2             4    7     1      -0.1251018220E-01       4    7    1        -0.6713865775E+00      0.1639914359E+01
          0                 4           2             4    7     1       0.8520177588E-03       4    7    1         0.4700577237E-01      0.1148164680E+00
          0                 5           1             4    7     1      -0.3391062754E-04       4    7    1        -0.1923075866E-02      0.4698180268E-02

    ------------------------------------------------
       NWT REQUIRED            5 OUTER ITERATIONS 
       AND A TOTAL OF          9 INNER ITERATIONS.
    ------------------------------------------------

 NO OUTPUT CONTROL FOR STRESS PERIOD   22   TIME STEP    4
 
 SOLVING FOR HEAD 
                                                   Max.-Head-Change                         Max.-Flux-Residual
  Residual-Control   Outer-Iter.   Inner-Iter.     Column Row Layer    Maximum-Head-Change  Column Row Layer    Maximum-Flux-Residual          L2-NORM 
          0                 1           2             5    6     1       0.7062062003E-01       5    6    1         0.3809313264E+01      0.9704267798E+01
          0                 2           2             5    6     1      -0.7181196612E-02       5    6    1        -0.3980656833E+00      0.1009836453E+01
          0                 3           2             4    7     1      -0.1174373069E-01       4    7    1        -0.6302430784E+00      0.1548197574E+01
          0                 4           2             4    7     1       0.1247199801E-01       4    7    1         0.6880204585E+00      0.1685062973E+01
          0                 5           2             4    7     1      -0.3056008589E-02       5    8    1        -0.1732856999E+00      0.4265982841E+00
          0                 6           2             4    7     1       0.2716213783E-02       5    8    1         0.1582983692E+00      0.3877665968E+00
          0                 7           2             4    7     1      -0.2649234318E-02       5    8    1        -0.1586717554E+00      0.3886766193E+00
          0                 8           2             4    7     1       0.1128491460E-03       5    8    1         0.6947252631E-02      0.1701609303E-01
          0                 9           1             4    7     1       0.7563147196E-05       5    8    1         0.4655635757E-03      0.1140330359E-02

    ------------------------------------------------
       NWT REQUIRED            9 OUTER ITERATIONS 
       AND A TOTAL OF         17 INNER ITERATIONS.
    ------------------------------------------------

 NO OUTPUT CONTROL FOR STRESS PERIOD   22   TIME STEP    5
 
 SOLVING FOR HEAD 
                                                   Max.-Head-Change                         Max.-Flux-Residual
  Residual-Control   Outer-Iter.   Inner-Iter.     Column Row Layer    Maximum-Head-Change  Column Row Layer    Maximum-Flux-Residual          L2-NORM 
          0                 1           2             5    7     1       0.6818797058E-01       5    6    1         0.3674845645E+01      0.9445155853E+01
          0                 2           2             5    7     1      -0.1746702713E-01       5    6    1        -0.9548966179E+00      0.2347700848E+01
          0                 3           2             4    7     1      -0.5290984102E-02       4    7    1        -0.2839414259E+00      0.6968317987E+00
          0                 4           2             4    7     1       0.6147716081E-02       4    7    1         0.3391401098E+00      0.8305431597E+00
          0                 5           2             4    7     1      -0.3311105510E-02       4    7    1        -0.1877487477E+00      0.4598863057E+00
          0                 6           2             4    7     1      -0.1481355180E-02       4    7    1        -0.8399566603E-01      0.2057439858E+00
          0                 7           1             4    7     1       0.1829371171E-04       5    8    1         0.1067219532E-02      0.2614582106E-02

    ------------------------------------------------
       NWT REQUIRED            7 OUTER ITERATIONS 
       AND A TOTAL OF         13 INNER ITERATIONS.
    ------------------------------------------------

 NO OUTPUT CONTROL FOR STRESS PERIOD   22   TIME STEP    6
 
 SOLVING FOR HEAD 
                                                   Max.-Head-Change                         Max.-Flux-Residual
  Residual-Control   Outer-Iter.   Inner-Iter.     Column Row Layer    Maximum-Head-Change  Column Row Layer    Maximum-Flux-Residual          L2-NORM 
          0                 1           2             5    7     1       0.6709125481E-01       5    6    1         0.3567745626E+01      0.9237214265E+01
          0                 2           2             5    7     1      -0.1808704051E-01       5    6    1        -0.9835867317E+00      0.2424797013E+01
          0                 3           2             4    7     1      -0.4273168672E-02       4    7    1        -0.2293071166E+00      0.5637986019E+00
          0                 4           2             4    7     1       0.5373933775E-02       4    7    1         0.2964533776E+00      0.7260492601E+00
          0                 5           2             4    7     1      -0.3334687636E-02       5    8    1        -0.1890867005E+00      0.4631635306E+00
          0                 6           2             4    7     1      -0.2880946427E-03       4    7    1        -0.1633536194E-01      0.4001109209E-01
          0                 7           2             4    7     1      -0.3298171227E-02       4    7    1        -0.1870111292E+00      0.4580815583E+00
          0                 8           1             4    7     1       0.4075809493E-04       5    8    1         0.2377648483E-02      0.5824867924E-02

    ------------------------------------------------
       NWT REQUIRED            8 OUTER ITERATIONS 
       AND A TOTAL OF         15 INNER ITERATIONS.
    ------------------------------------------------

 NO OUTPUT CONTROL FOR STRESS PERIOD   22   TIME STEP    7
 
 SOLVING FOR HEAD 
                                                   Max.-Head-Change                         Max.-Flux-Residual
  Residual-Control   Outer-Iter.   Inner-Iter.     Column Row Layer    Maximum-Head-Change  Column Row Layer    Maximum-Flux-Residual          L2-NORM 
          0                 1           2             5    7     1       0.6605695534E-01       5    7    1         0.3501744613E+01      0.9047254162E+01
          0                 2           2             5    7     1      -0.1715915035E-01       5    7    1        -0.9321349462E+00      0.2298280856E+01
          0                 3           2             4    7     1      -0.5445227101E-02       4    7    1        -0.2921931493E+00      0.7188816019E+00
          0                 4           2             4    7     1       0.6244337416E-02       4    7    1         0.3444683021E+00      0.8437265112E+00
          0                 5           2             4    7     1      -0.5377026832E-03       5    8    1        -0.3049275373E-01      0.7468791829E-01
          0                 6           2             4    7     1      -0.3149678784E-03       4    7    1        -0.1785929050E-01      0.4374580958E-01
          0                 7           2             4    7     1      -0.3122778935E-02       4    7    1        -0.1770661261E+00      0.4337213880E+00
          0                 8           2             4    7     1      -0.6452095287E-03       4    7    1        -0.3658378403E-01      0.8960915778E-01
          0                 9           1             4    7     1       0.7980449484E-05       5    8    1         0.4655715736E-03      0.1140638293E-02

    ------------------------------------------------
       NWT REQUIRED            9 OUTER ITERATIONS 
       AND A TOTAL OF         17 INNER ITERATIONS.
    ------------------------------------------------

 NO OUTPUT CONTROL FOR STRESS PERIOD   22   TIME STEP    8
 
 SOLVING FOR HEAD 
                                                   Max.-Head-Change                         Max.-Flux-Residual
  Residual-Control   Outer-Iter.   Inner-Iter.     Column Row Layer    Maximum-Head-Change  Column Row Layer    Maximum-Flux-Residual          L2-NORM 
          0                 1           2             5    7     1       0.6499878461E-01       5    7    1         0.3445634797E+01      0.8857793449E+01
          0                 2           2             4    7     1      -0.1798515281E-01       5    7    1        -0.9729426314E+00      0.2394104433E+01
          0                 3           2             4    7     1      -0.4241989958E-02       5    8    1        -0.2277552544E+00      0.5612922071E+00
          0                 4           2             4    7     1       0.5335124880E-02       5    8    1         0.2943273043E+00      0.7209223490E+00
          0                 5           2             4    7     1      -0.3460605020E-02       5    8    1        -0.1962298524E+00      0.4806572051E+00
          0                 6           2             4    7     1      -0.3105454878E-02       4    7    1        -0.1760853889E+00      0.4313165406E+00
          0                 7           1             4    7     1       0.3834609813E-04       5    8    1         0.2236998467E-02      0.5480360029E-02

    ------------------------------------------------
       NWT REQUIRED            7 OUTER ITERATIONS 
       AND A TOTAL OF         13 INNER ITERATIONS.
    ------------------------------------------------

 NO OUTPUT CONTROL FOR STRESS PERIOD   22   TIME STEP    9
 
 SOLVING FOR HEAD 
                                                   Max.-Head-Change                         Max.-Flux-Residual
  Residual-Control   Outer-Iter.   Inner-Iter.     Column Row Layer    Maximum-Head-Change  Column Row Layer    Maximum-Flux-Residual          L2-NORM 
          0                 1           2             4    7     1       0.6418380794E-01       5    7    1         0.3392730363E+01      0.8684564094E+01
          0                 2           2             4    7     1      -0.1731086786E-01       5    7    1        -0.9332132910E+00      0.2294244533E+01
          0                 3           2             4    7     1      -0.5135454565E-02       5    8    1        -0.2762090857E+00      0.6795925876E+00
          0                 4           2             4    7     1       0.6026111030E-02       5    8    1         0.3324813587E+00      0.8143458515E+00
          0                 5           2             4    7     1      -0.3184118614E-02       5    8    1        -0.1805543091E+00      0.4422581880E+00
          0                 6           2             4    7     1      -0.1677514896E-02       4    7    1        -0.9511832495E-01      0.2329887907E+00
          0                 7           1             4    7     1       0.2071614670E-04       5    8    1         0.1208531764E-02      0.2960775345E-02

    ------------------------------------------------
       NWT REQUIRED            7 OUTER ITERATIONS 
       AND A TOTAL OF         13 INNER ITERATIONS.
    ------------------------------------------------

 NO OUTPUT CONTROL FOR STRESS PERIOD   22   TIME STEP   10
 
 SOLVING FOR HEAD 
                                                   Max.-Head-Change                         Max.-Flux-Residual
  Residual-Control   Outer-Iter.   Inner-Iter.     Column Row Layer    Maximum-Head-Change  Column Row Layer    Maximum-Flux-Residual          L2-NORM 
          0                 1           2             4    7     1       0.6381304442E-01       5    7    1         0.3339157264E+01      0.8512845161E+01
          0                 2           2             4    7     1      -0.1791722801E-01       5    7    1        -0.9623319530E+00      0.2362547276E+01
          0                 3           2             4    7     1      -0.4249998990E-02       5    8    1        -0.2291745107E+00      0.5636982532E+00
          0                 4           2             4    7     1       0.5316371661E-02       5    8    1         0.2933615789E+00      0.7184877357E+00
          0                 5           2             4    7     1      -0.5131962055E-03       5    8    1        -0.2910692528E-01      0.7128930918E-01
          0                 6           2             4    7     1      -0.2967828962E-03       4    7    1        -0.1682817195E-01      0.4122002125E-01
          0                 7           2             4    7     1      -0.3165276298E-03       4    7    1        -0.1794756851E-01      0.4396213329E-01
          0                 8           2             4    7     1      -0.3188983878E-02       4    7    1        -0.1808183096E+00      0.4429123240E+00
          0                 9           2             4    7     1      -0.1080440419E-02       4    7    1        -0.6126117795E-01      0.1500560512E+00
          0                10           1             4    7     1       0.1337423025E-04       5    8    1         0.7802093089E-03      0.1911449478E-02

    ------------------------------------------------
       NWT REQUIRED           10 OUTER ITERATIONS 
       AND A TOTAL OF         19 INNER ITERATIONS.
    ------------------------------------------------

 NO OUTPUT CONTROL FOR STRESS PERIOD   22   TIME STEP   11
 
 SOLVING FOR HEAD 
                                                   Max.-Head-Change                         Max.-Flux-Residual
  Residual-Control   Outer-Iter.   Inner-Iter.     Column Row Layer    Maximum-Head-Change  Column Row Layer    Maximum-Flux-Residual          L2-NORM 
          0                 1           2             4    7     1       0.6342527932E-01       4    7    1         0.3319974562E+01      0.8351733188E+01
          0                 2           2             4    7     1      -0.1791552718E-01       4    7    1        -0.9623477866E+00      0.2352395338E+01
          0                 3           2             4    7     1      -0.4206000466E-02       5    8    1        -0.2272437400E+00      0.5585005444E+00
          0                 4           2             4    7     1       0.5281925522E-02       5    8    1         0.2914912693E+00      0.7138767546E+00
          0                 5           2             4    7     1      -0.5063359061E-03       5    8    1        -0.2871912133E-01      0.7033821459E-01
          0                 6           2             4    7     1      -0.2939990872E-02       4    7    1        -0.1667035017E+00      0.4083380787E+00
          0                 7           2             4    7     1      -0.2824654105E-03       4    7    1        -0.1601604157E-01      0.3922904415E-01
          0                 8           2             4    7     1      -0.1698512826E-02       4    7    1        -0.9630724390E-01      0.2359033317E+00
          0                 9           1             4    7     1       0.2032119252E-04       5    8    1         0.1185477650E-02      0.2904310761E-02

    ------------------------------------------------
       NWT REQUIRED            9 OUTER ITERATIONS 
       AND A TOTAL OF         17 INNER ITERATIONS.
    ------------------------------------------------

 NO OUTPUT CONTROL FOR STRESS PERIOD   22   TIME STEP   12
 
 SOLVING FOR HEAD 
                                                   Max.-Head-Change                         Max.-Flux-Residual
  Residual-Control   Outer-Iter.   Inner-Iter.     Column Row Layer    Maximum-Head-Change  Column Row Layer    Maximum-Flux-Residual          L2-NORM 
          0                 1           2             4    7     1       0.6301743526E-01       4    7    1         0.3299830451E+01      0.8197748065E+01
          0                 2           2             4    7     1      -0.1788366763E-01       4    7    1        -0.9607528612E+00      0.2339151458E+01
          0                 3           2             4    7     1      -0.4200251175E-02       5    8    1        -0.2273262225E+00      0.5582863853E+00
          0                 4           2             4    7     1       0.5267212971E-02       5    8    1         0.2907068638E+00      0.7119287477E+00
          0                 5           2             4    7     1      -0.5152581763E-03       5    8    1        -0.2922613513E-01      0.7157904938E-01
          0                 6           2             4    7     1      -0.3024445813E-03       4    7    1        -0.1714921023E-01      0.4200635457E-01
          0                 7           2             4    7     1      -0.3251900314E-03       4    7    1        -0.1843874843E-01      0.4516526930E-01
          0                 8           2             4    7     1      -0.2607984790E-02       4    7    1        -0.1478751989E+00      0.3622185049E+00
          0                 9           2             4    7     1      -0.1662840628E-02       4    7    1        -0.9428356103E-01      0.2309444617E+00
          0                10           1             4    7     1       0.1986034564E-04       5    8    1         0.1158608251E-02      0.2838533633E-02

    ------------------------------------------------
       NWT REQUIRED           10 OUTER ITERATIONS 
       AND A TOTAL OF         19 INNER ITERATIONS.
    ------------------------------------------------

 NO OUTPUT CONTROL FOR STRESS PERIOD   22   TIME STEP   13
 
 SOLVING FOR HEAD 
                                                   Max.-Head-Change                         Max.-Flux-Residual
  Residual-Control   Outer-Iter.   Inner-Iter.     Column Row Layer    Maximum-Head-Change  Column Row Layer    Maximum-Flux-Residual          L2-NORM 
          0                 1           2             4    7     1       0.6259166617E-01       4    7    1         0.3278648723E+01      0.8050309905E+01
          0                 2           2             4    7     1      -0.1784940710E-01       4    7    1        -0.9590189231E+00      0.2326377471E+01
          0                 3           2             4    7     1      -0.4195491583E-02       5    8    1        -0.2274259209E+00      0.5581557241E+00
          0                 4           2             4    7     1       0.5252907931E-02       5    8    1         0.2899424542E+00      0.7100324281E+00
          0                 5           2             4    7     1      -0.5247863563E-03       5    8    1        -0.2976740600E-01      0.7290391107E-01
          0                 6           2             4    7     1      -0.3179148813E-03       4    7    1        -0.1802641394E-01      0.4415502855E-01
          0                 7           2             4    7     1      -0.3082753539E-02       4    7    1        -0.1747968229E+00      0.4281627526E+00
          0                 8           2             4    7     1      -0.1472007427E-02       4    7    1        -0.8346406848E-01      0.2044418558E+00
          0                 9           1             4    7     1       0.1757687939E-04       5    8    1         0.1025414641E-02      0.2512232473E-02

    ------------------------------------------------
       NWT REQUIRED            9 OUTER ITERATIONS 
       AND A TOTAL OF         17 INNER ITERATIONS.
    ------------------------------------------------

 NO OUTPUT CONTROL FOR STRESS PERIOD   22   TIME STEP   14
 
 SOLVING FOR HEAD 
                                                   Max.-Head-Change                         Max.-Flux-Residual
  Residual-Control   Outer-Iter.   Inner-Iter.     Column Row Layer    Maximum-Head-Change  Column Row Layer    Maximum-Flux-Residual          L2-NORM 
          0                 1           2             4    7     1       0.6214964986E-01       4    7    1         0.3256522741E+01      0.7908995849E+01
          0                 2           2             4    7     1      -0.1781349752E-01       4    7    1        -0.9571869013E+00      0.2314118884E+01
          0                 3           2             4    7     1      -0.4190914918E-02       5    8    1        -0.2275021122E+00      0.5580047949E+00
          0                 4           2             4    7     1       0.5238602161E-02       5    8    1         0.2891756971E+00      0.7081328147E+00
          0                 5           2             4    7     1      -0.5345909445E-03       5    8    1        -0.3032425744E-01      0.7426721114E-01
          0                 6           2             4    7     1      -0.2924011059E-02       4    7    1        -0.1657975758E+00      0.4061189539E+00
          0                 7           2             4    7     1      -0.2846126402E-03       4    7    1        -0.1613780958E-01      0.3952732131E-01
          0                 8           2             4    7     1      -0.1642379750E-02       4    7    1        -0.9312453756E-01      0.2281073237E+00
          0                 9           1             4    7     1       0.1963507895E-04       5    8    1         0.1145453528E-02      0.2806257264E-02

    ------------------------------------------------
       NWT REQUIRED            9 OUTER ITERATIONS 
       AND A TOTAL OF         17 INNER ITERATIONS.
    ------------------------------------------------

 NO OUTPUT CONTROL FOR STRESS PERIOD   22   TIME STEP   15
 
 SOLVING FOR HEAD 
                                                   Max.-Head-Change                         Max.-Flux-Residual
  Residual-Control   Outer-Iter.   Inner-Iter.     Column Row Layer    Maximum-Head-Change  Column Row Layer    Maximum-Flux-Residual          L2-NORM 
          0                 1           2             4    7     1       0.6169336301E-01       4    7    1         0.3233561679E+01      0.7773448436E+01
          0                 2           2             4    7     1      -0.1777612901E-01       4    7    1        -0.9552675956E+00      0.2302347806E+01
          0                 3           2             4    7     1      -0.4186510118E-02       5    8    1        -0.2275566691E+00      0.5578353283E+00
          0                 4           2             4    7     1       0.5279055750E-02       5    8    1         0.2914276054E+00      0.7136295382E+00
          0                 5           2             4    7     1      -0.3310851264E-02       5    8    1        -0.1877465591E+00      0.4598698125E+00
          0                 6           2             4    7     1      -0.2705997090E-03       4    7    1        -0.1534339737E-01      0.3758111941E-01
          0                 7           2             4    7     1      -0.1847405403E-02       4    7    1        -0.1047507739E+00      0.2565856803E+00
          0                 8           1             4    7     1       0.2206608852E-04       5    8    1         0.1287285335E-02      0.3153733621E-02

    ------------------------------------------------
       NWT REQUIRED            8 OUTER ITERATIONS 
       AND A TOTAL OF         15 INNER ITERATIONS.
    ------------------------------------------------

 NO OUTPUT CONTROL FOR STRESS PERIOD   22   TIME STEP   16
 
 SOLVING FOR HEAD 
                                                   Max.-Head-Change                         Max.-Flux-Residual
  Residual-Control   Outer-Iter.   Inner-Iter.     Column Row Layer    Maximum-Head-Change  Column Row Layer    Maximum-Flux-Residual          L2-NORM 
          0                 1           2             4    7     1       0.6122438633E-01       4    7    1         0.3209853490E+01      0.7643303700E+01
          0                 2           2             4    7     1      -0.1773745986E-01       4    7    1        -0.9532700419E+00      0.2291036115E+01
          0                 3           2             4    7     1      -0.4182263900E-02       5    8    1        -0.2275911753E+00      0.5576482571E+00
          0                 4           2             4    7     1       0.5265763956E-02       5    8    1         0.2907126712E+00      0.7118612204E+00
          0                 5           2             4    7     1      -0.3407260446E-02       5    8    1        -0.1932140344E+00      0.4732616508E+00
          0                 6           2             4    7     1      -0.2854190342E-03       4    7    1        -0.1618368685E-01      0.3963930675E-01
          0                 7           2             4    7     1      -0.1721700188E-02       4    7    1        -0.9762313416E-01      0.2391265865E+00
          0                 8           1             4    7     1       0.2057795287E-04       5    8    1         0.1200470860E-02      0.2941045247E-02

    ------------------------------------------------
       NWT REQUIRED            8 OUTER ITERATIONS 
       AND A TOTAL OF         15 INNER ITERATIONS.
    ------------------------------------------------

 NO OUTPUT CONTROL FOR STRESS PERIOD   22   TIME STEP   17
 
 SOLVING FOR HEAD 
                                                   Max.-Head-Change                         Max.-Flux-Residual
  Residual-Control   Outer-Iter.   Inner-Iter.     Column Row Layer    Maximum-Head-Change  Column Row Layer    Maximum-Flux-Residual          L2-NORM 
          0                 1           2             4    7     1       0.6074418888E-01       4    7    1         0.3185480100E+01      0.7518241222E+01
          0                 2           2             4    7     1      -0.1769763412E-01       4    7    1        -0.9512024937E+00      0.2280159449E+01
          0                 3           2             4    7     1      -0.4178158425E-02       5    8    1        -0.2276067471E+00      0.5574435612E+00
          0                 4           2             4    7     1       0.5252476179E-02       5    8    1         0.2899961244E+00      0.7100908585E+00
          0                 5           2             4    7     1      -0.3506119874E-02       5    8    1        -0.1988203826E+00      0.4869937342E+00
          0                 6           2             4    7     1      -0.1897386143E-02       4    7    1        -0.1075857497E+00      0.2635271963E+00
          0                 7           1             4    7     1       0.2264591715E-04       5    8    1         0.1321157425E-02      0.3236784380E-02

    ------------------------------------------------
       NWT REQUIRED            7 OUTER ITERATIONS 
       AND A TOTAL OF         13 INNER ITERATIONS.
    ------------------------------------------------

 NO OUTPUT CONTROL FOR STRESS PERIOD   22   TIME STEP   18
 
 SOLVING FOR HEAD 
                                                   Max.-Head-Change                         Max.-Flux-Residual
  Residual-Control   Outer-Iter.   Inner-Iter.     Column Row Layer    Maximum-Head-Change  Column Row Layer    Maximum-Flux-Residual          L2-NORM 
          0                 1           2             4    7     1       0.6025453936E-01       4    7    1         0.3160539485E+01      0.7397970735E+01
          0                 2           2             4    7     1      -0.1765682392E-01       4    7    1        -0.9490747504E+00      0.2269694812E+01
          0                 3           2             4    7     1      -0.4174188331E-02       5    8    1        -0.2276051652E+00      0.5572233877E+00
          0                 4           2             4    7     1       0.5239185589E-02       5    8    1         0.2892777310E+00      0.7083177389E+00
          0                 5           2             4    7     1      -0.4976257886E-03       5    8    1        -0.2823109382E-01      0.6913729858E-01
          0                 6           2             4    7     1      -0.2872385884E-02       4    7    1        -0.1628706316E+00      0.3989493962E+00
          0                 7           2             4    7     1      -0.2774800144E-03       4    7    1        -0.1573341166E-01      0.3853679440E-01
          0                 8           2             4    7     1      -0.1741206140E-02       4    7    1        -0.9872827961E-01      0.2418336391E+00
          0                 9           1             4    7     1       0.2084107533E-04       5    8    1         0.1215807849E-02      0.2978615725E-02

    ------------------------------------------------
       NWT REQUIRED            9 OUTER ITERATIONS 
       AND A TOTAL OF         17 INNER ITERATIONS.
    ------------------------------------------------

 NO OUTPUT CONTROL FOR STRESS PERIOD   22   TIME STEP   19
 
 SOLVING FOR HEAD 
                                                   Max.-Head-Change                         Max.-Flux-Residual
  Residual-Control   Outer-Iter.   Inner-Iter.     Column Row Layer    Maximum-Head-Change  Column Row Layer    Maximum-Flux-Residual          L2-NORM 
          0                 1           2             4    7     1       0.5975669032E-01       4    7    1         0.3135101541E+01      0.7282209571E+01
          0                 2           2             4    7     1      -0.1761515337E-01       4    7    1        -0.9468939220E+00      0.2259620353E+01
          0                 3           2             4    7     1      -0.4170340503E-02       5    8    1        -0.2275875555E+00      0.5569880409E+00
          0                 4           2             4    7     1       0.5225891310E-02       5    8    1         0.2885575693E+00      0.7065418780E+00
          0                 5           2             4    7     1      -0.5062238730E-03       5    8    1        -0.2871916333E-01      0.7033232502E-01
          0                 6           2             4    7     1      -0.2952030315E-03       4    7    1        -0.1673865444E-01      0.4100060660E-01
          0                 7           2             4    7     1      -0.3173191399E-03       4    7    1        -0.1799251427E-01      0.4407223099E-01
          0                 8           2             4    7     1      -0.3201668204E-03       4    7    1        -0.1815380211E-01      0.4446728470E-01
          0                 9           2             4    7     1      -0.3112603311E-02       4    7    1        -0.1764863633E+00      0.4323012628E+00
          0                10           2             4    7     1      -0.8129288158E-03       4    7    1        -0.4609289177E-01      0.1129015903E+00
          0                11           1             4    7     1       0.9751633600E-05       5    8    1         0.5689009922E-03      0.1393813793E-02

    ------------------------------------------------
       NWT REQUIRED           11 OUTER ITERATIONS 
       AND A TOTAL OF         21 INNER ITERATIONS.
    ------------------------------------------------

 NO OUTPUT CONTROL FOR STRESS PERIOD   22   TIME STEP   20
 
 SOLVING FOR HEAD 
                                                   Max.-Head-Change                         Max.-Flux-Residual
  Residual-Control   Outer-Iter.   Inner-Iter.     Column Row Layer    Maximum-Head-Change  Column Row Layer    Maximum-Flux-Residual          L2-NORM 
          0                 1           2             4    7     1       0.5925180289E-01       4    7    1         0.3109231166E+01      0.7170712833E+01
          0                 2           2             4    7     1      -0.1757369072E-01       4    7    1        -0.9447885316E+00      0.2249918386E+01
          0                 3           2             4    7     1      -0.4166441778E-02       5    8    1        -0.2275551527E+00      0.5567386451E+00
          0                 4           2             4    7     1       0.5212483166E-02       5    8    1         0.2878353674E+00      0.7047624929E+00
          0                 5           2             4    7     1      -0.5150576455E-03       5    8    1        -0.2922109718E-01      0.7156138132E-01
          0                 6           2             4    7     1      -0.3095355801E-03       4    7    1        -0.1755167950E-01      0.4299208522E-01
          0                 7           2             4    7     1      -0.2997766316E-02       4    7    1        -0.1699816677E+00      0.4163680880E+00
          0                 8           2             4    7     1      -0.1537762626E-02       4    7    1        -0.8719438069E-01      0.2135792830E+00
          0                 9           1             4    7     1       0.1841781781E-04       5    8    1         0.1074491052E-02      0.2632456898E-02

    ------------------------------------------------
       NWT REQUIRED            9 OUTER ITERATIONS 
       AND A TOTAL OF         17 INNER ITERATIONS.
    ------------------------------------------------

 NO OUTPUT CONTROL FOR STRESS PERIOD   22   TIME STEP   21
 
 SOLVING FOR HEAD 
                                                   Max.-Head-Change                         Max.-Flux-Residual
  Residual-Control   Outer-Iter.   Inner-Iter.     Column Row Layer    Maximum-Head-Change  Column Row Layer    Maximum-Flux-Residual          L2-NORM 
          0                 1           2             4    7     1       0.5872992526E-01       4    7    1         0.3082950805E+01      0.7063228511E+01
          0                 2           2             4    7     1      -0.1752838174E-01       4    7    1        -0.9423947429E+00      0.2240563833E+01
          0                 3           2             4    7     1      -0.4162972881E-02       5    8    1        -0.2275089978E+00      0.5564760298E+00
          0                 4           2             4    7     1       0.5199197422E-02       5    8    1         0.2871122706E+00      0.7029822633E+00
          0                 5           2             4    7     1      -0.5241457004E-03       5    8    1        -0.2973682306E-01      0.7282427354E-01
          0                 6           2             4    7     1      -0.2823421723E-02       4    7    1        -0.1600975190E+00      0.3921566342E+00
          0                 7           2             4    7     1      -0.2005194321E-02       4    7    1        -0.1136999972E+00      0.2785046429E+00
          0                 8           1             4    7     1       0.2398553981E-04       5    8    1         0.1399315656E-02      0.3428244419E-02

    ------------------------------------------------
       NWT REQUIRED            8 OUTER ITERATIONS 
       AND A TOTAL OF         15 INNER ITERATIONS.
    ------------------------------------------------

 NO OUTPUT CONTROL FOR STRESS PERIOD   22   TIME STEP   22
 
 SOLVING FOR HEAD 
                                                   Max.-Head-Change                         Max.-Flux-Residual
  Residual-Control   Outer-Iter.   Inner-Iter.     Column Row Layer    Maximum-Head-Change  Column Row Layer    Maximum-Flux-Residual          L2-NORM 
          0                 1           2             4    7     1       0.5820498021E-01       4    7    1         0.3055904623E+01      0.6959536561E+01
          0                 2           2             4    7     1      -0.1748389071E-01       4    7    1        -0.9400432207E+00      0.2231545354E+01
          0                 3           2             4    7     1      -0.4159504379E-02       5    8    1        -0.2274498501E+00      0.5562003944E+00
          0                 4           2             4    7     1       0.5185894334E-02       5    8    1         0.2863873180E+00      0.7011987417E+00
          0                 5           2             4    7     1      -0.3477249267E-02       5    8    1        -0.1971898841E+00      0.4829977774E+00
          0                 6           2             4    7     1      -0.1860723105E-02       4    7    1        -0.1055091516E+00      0.2584405681E+00
          0                 7           1             4    7     1       0.2225351339E-04       5    8    1         0.1298289211E-02      0.3180754129E-02

    ------------------------------------------------
       NWT REQUIRED            7 OUTER ITERATIONS 
       AND A TOTAL OF         13 INNER ITERATIONS.
    ------------------------------------------------

 NO OUTPUT CONTROL FOR STRESS PERIOD   22   TIME STEP   23
 
 SOLVING FOR HEAD 
                                                   Max.-Head-Change                         Max.-Flux-Residual
  Residual-Control   Outer-Iter.   Inner-Iter.     Column Row Layer    Maximum-Head-Change  Column Row Layer    Maximum-Flux-Residual          L2-NORM 
          0                 1           2             4    7     1       0.5767667363E-01       4    7    1         0.3028629445E+01      0.6859437080E+01
          0                 2           2             4    7     1      -0.1743901346E-01       4    7    1        -0.9376656297E+00      0.2222844734E+01
          0                 3           2             4    7     1      -0.4156122795E-02       5    8    1        -0.2273789174E+00      0.5559125991E+00
          0                 4           2             4    7     1       0.5226374516E-02       5    8    1         0.2886282496E+00      0.7066811215E+00
          0                 5           2             4    7     1      -0.3313431867E-02       5    8    1        -0.1879012438E+00      0.4602450581E+00
          0                 6           2             4    7     1      -0.2067798633E-02       4    7    1        -0.1172511255E+00      0.2872025305E+00
          0                 7           1             4    7     1       0.2472893084E-04       5    8    1         0.1442702556E-02      0.3534549372E-02

    ------------------------------------------------
       NWT REQUIRED            7 OUTER ITERATIONS 
       AND A TOTAL OF         13 INNER ITERATIONS.
    ------------------------------------------------

 NO OUTPUT CONTROL FOR STRESS PERIOD   22   TIME STEP   24
 
 SOLVING FOR HEAD 
                                                   Max.-Head-Change                         Max.-Flux-Residual
  Residual-Control   Outer-Iter.   Inner-Iter.     Column Row Layer    Maximum-Head-Change  Column Row Layer    Maximum-Flux-Residual          L2-NORM 
          0                 1           2             4    7     1       0.5714598230E-01       4    7    1         0.3001180008E+01      0.6762745057E+01
          0                 2           2             4    7     1      -0.1739384726E-01       4    7    1        -0.9352675640E+00      0.2214446684E+01
          0                 3           2             4    7     1      -0.4152818000E-02       5    8    1        -0.2272969145E+00      0.5556136271E+00
          0                 4           2             4    7     1       0.5213999713E-02       5    8    1         0.2879523151E+00      0.7050198343E+00
          0                 5           2             4    7     1      -0.3404937379E-02       5    8    1        -0.1930903550E+00      0.4729555129E+00
          0                 6           2             4    7     1      -0.1962916285E-02       4    7    1        -0.1113040035E+00      0.2726350410E+00
          0                 7           1             4    7     1       0.2348791414E-04       5    8    1         0.1370303293E-02      0.3357178732E-02

    ------------------------------------------------
       NWT REQUIRED            7 OUTER ITERATIONS 
       AND A TOTAL OF         13 INNER ITERATIONS.
    ------------------------------------------------

 NO OUTPUT CONTROL FOR STRESS PERIOD   22   TIME STEP   25
 
 SOLVING FOR HEAD 
                                                   Max.-Head-Change                         Max.-Flux-Residual
  Residual-Control   Outer-Iter.   Inner-Iter.     Column Row Layer    Maximum-Head-Change  Column Row Layer    Maximum-Flux-Residual          L2-NORM 
          0                 1           2             4    7     1       0.5661380175E-01       4    7    1         0.2973606908E+01      0.6669290776E+01
          0                 2           2             4    7     1      -0.1734852200E-01       4    7    1        -0.9328540242E+00      0.2206340530E+01
          0                 3           2             4    7     1      -0.4149578992E-02       5    8    1        -0.2272184063E+00      0.5553039785E+00
          0                 4           2             4    7     1       0.5201613470E-02       5    8    1         0.2872757972E+00      0.7033557138E+00
          0                 5           2             4    7     1      -0.3498736437E-02       5    8    1        -0.1984095597E+00      0.4859845729E+00
          0                 6           2             4    7     1      -0.1855697370E-02       4    7    1        -0.1052243992E+00      0.2577430376E+00
          0                 7           1             4    7     1       0.2221497372E-04       5    8    1         0.1296042096E-02      0.3175246845E-02

    ------------------------------------------------
       NWT REQUIRED            7 OUTER ITERATIONS 
       AND A TOTAL OF         13 INNER ITERATIONS.
    ------------------------------------------------

 NO OUTPUT CONTROL FOR STRESS PERIOD   22   TIME STEP   26
 
 SOLVING FOR HEAD 
                                                   Max.-Head-Change                         Max.-Flux-Residual
  Residual-Control   Outer-Iter.   Inner-Iter.     Column Row Layer    Maximum-Head-Change  Column Row Layer    Maximum-Flux-Residual          L2-NORM 
          0                 1           2             4    7     1       0.5608079941E-01       4    7    1         0.2945954310E+01      0.6578892075E+01
          0                 2           2             4    7     1      -0.1730297156E-01       4    7    1        -0.9304295475E+00      0.2198501921E+01
          0                 3           2             4    7     1      -0.4146417584E-02       5    8    1        -0.2271020834E+00      0.5549847017E+00
          0                 4           2             4    7     1       0.5189231050E-02       5    8    1         0.2865965183E+00      0.7016906258E+00
          0                 5           2             4    7     1      -0.4952018120E-03       5    8    1        -0.2809700915E-01      0.6880648942E-01
          0                 6           2             4    7     1      -0.2845330020E-03       4    7    1        -0.1613401711E-01      0.3951951694E-01
          0                 7           2             4    7     1      -0.3037965666E-03       4    7    1        -0.1722616336E-01      0.4219507204E-01
          0                 8           2             4    7     1      -0.3061566827E-02       4    7    1        -0.1735983248E+00      0.4252270563E+00
          0                 9           2             4    7     1      -0.1189152908E-02       4    7    1        -0.6742704057E-01      0.1651593606E+00
          0                10           1             4    7     1       0.1428831712E-04       5    8    1         0.8335767222E-03      0.2042237096E-02

    ------------------------------------------------
       NWT REQUIRED           10 OUTER ITERATIONS 
       AND A TOTAL OF         19 INNER ITERATIONS.
    ------------------------------------------------

 NO OUTPUT CONTROL FOR STRESS PERIOD   22   TIME STEP   27
 
 SOLVING FOR HEAD 
                                                   Max.-Head-Change                         Max.-Flux-Residual
  Residual-Control   Outer-Iter.   Inner-Iter.     Column Row Layer    Maximum-Head-Change  Column Row Layer    Maximum-Flux-Residual          L2-NORM 
          0                 1           2             4    7     1       0.5554788297E-01       4    7    1         0.2918263785E+01      0.6491402933E+01
          0                 2           2             4    7     1      -0.1725742042E-01       4    7    1        -0.9279983503E+00      0.2190928809E+01
          0                 3           2             4    7     1      -0.4143305041E-02       5    8    1        -0.2269899004E+00      0.5546555955E+00
          0                 4           2             4    7     1       0.5176831395E-02       5    8    1         0.2859164023E+00      0.7000220137E+00
          0                 5           2             4    7     1      -0.5033580201E-03       5    8    1        -0.2855965934E-01      0.6993963362E-01
          0                 6           2             4    7     1      -0.2976540176E-03       4    7    1        -0.1687803695E-01      0.4134197551E-01
          0                 7           2             4    7     1      -0.3251126087E-03       4    7    1        -0.1843485927E-01      0.4515574923E-01
          0                 8           2             4    7     1      -0.3001825389E-02       4    7    1        -0.1702109565E+00      0.4169297145E+00
          0                 9           2             4    7     1      -0.1194220355E-02       4    7    1        -0.6771442518E-01      0.1658633522E+00
          0                10           1             4    7     1       0.1435922685E-04       5    8    1         0.8377127192E-03      0.2052367446E-02

    ------------------------------------------------
       NWT REQUIRED           10 OUTER ITERATIONS 
       AND A TOTAL OF         19 INNER ITERATIONS.
    ------------------------------------------------

 NO OUTPUT CONTROL FOR STRESS PERIOD   22   TIME STEP   28
 
 SOLVING FOR HEAD 
                                                   Max.-Head-Change                         Max.-Flux-Residual
  Residual-Control   Outer-Iter.   Inner-Iter.     Column Row Layer    Maximum-Head-Change  Column Row Layer    Maximum-Flux-Residual          L2-NORM 
          0                 1           2             4    7     1       0.5501584264E-01       4    7    1         0.2890582595E+01      0.6406694825E+01
          0                 2           2             4    7     1      -0.1721189989E-01       4    7    1        -0.9255651599E+00      0.2183606769E+01
          0                 3           2             4    7     1      -0.4140250292E-02       5    8    1        -0.2268700506E+00      0.5543179215E+00
          0                 4           2             4    7     1       0.5164430249E-02       5    8    1         0.2852354566E+00      0.6983520772E+00
          0                 5           2             4    7     1      -0.5117338441E-03       5    8    1        -0.2903473318E-01      0.7110323539E-01
          0                 6           2             4    7     1      -0.3114029234E-03       4    7    1        -0.1765766161E-01      0.4325164813E-01
          0                 7           2             4    7     1      -0.3067067749E-02       4    7    1        -0.1739122024E+00      0.4259958917E+00
          0                 8           2             4    7     1      -0.1422569287E-02       4    7    1        -0.8066310008E-01      0.1975809314E+00
          0                 9           1             4    7     1       0.1708813903E-04       5    8    1         0.9969227467E-03      0.2442418301E-02

    ------------------------------------------------
       NWT REQUIRED            9 OUTER ITERATIONS 
       AND A TOTAL OF         17 INNER ITERATIONS.
    ------------------------------------------------

 NO OUTPUT CONTROL FOR STRESS PERIOD   22   TIME STEP   29
 
 SOLVING FOR HEAD 
                                                   Max.-Head-Change                         Max.-Flux-Residual
  Residual-Control   Outer-Iter.   Inner-Iter.     Column Row Layer    Maximum-Head-Change  Column Row Layer    Maximum-Flux-Residual          L2-NORM 
          0                 1           2             4    7     1       0.5448504972E-01       4    7    1         0.2862932317E+01      0.6324805920E+01
          0                 2           2             4    7     1      -0.1716644942E-01       4    7    1        -0.9231323133E+00      0.2176448787E+01
          0                 3           2             4    7     1      -0.4137232806E-02       5    8    1        -0.2267421817E+00      0.5532102167E+00
          0                 4           2             4    7     1       0.4548348009E-02       5    8    1         0.2512508085E+00      0.6151041361E+00
          0                 5           2             4    7     1      -0.3333768155E-02       5    8    1        -0.1890557417E+00      0.4630726951E+00
          0                 6           2             4    7     1      -0.1949492709E-02       4    7    1        -0.1105432454E+00      0.2707716054E+00
          0                 7           1             4    7     1       0.2336816822E-04       5    8    1         0.1363318657E-02      0.3340061259E-02

    ------------------------------------------------
       NWT REQUIRED            7 OUTER ITERATIONS 
       AND A TOTAL OF         13 INNER ITERATIONS.
    ------------------------------------------------

 NO OUTPUT CONTROL FOR STRESS PERIOD   22   TIME STEP   30



 STREAM LISTING     PERIOD     22   STEP       30

 LAYER ROW COL. STREAM  RCH.  FLOW INTO     FLOW TO   FLOW OUT OF   OVRLND.     DIRECT     STREAM       STREAM     STREAM     STREAM   STREAMBED  STREAMBED
                SEG.NO.  NO.  STRM. RCH.    AQUIFER    STRM. RCH.    RUNOFF     PRECIP       ET          HEAD       DEPTH      WIDTH   CONDCTNC.   GRADIENT

   1    1    1     1     1    9.1618E+00  1.4063E-01   9.0211E+00  0.000E+00  0.000E+00  0.000E+00  1.09392E+03  8.721E-01  8.071E+00  3.632E-02  1.291E+00
   1    2    2     1     2    9.0211E+00  2.1609E-01   8.8050E+00  0.000E+00  0.000E+00  0.000E+00  1.08893E+03  8.664E-01  7.984E+00  5.589E-02  1.289E+00
   1    3    3     1     3    8.8050E+00  1.8264E-01   8.6224E+00  0.000E+00  0.000E+00  0.000E+00  1.08328E+03  8.600E-01  7.886E+00  4.732E-02  1.287E+00
   1    3    4     1     4    8.6224E+00  1.6685E-01   8.4556E+00  0.000E+00  0.000E+00  0.000E+00  1.07826E+03  8.543E-01  7.800E+00  4.329E-02  1.285E+00
   1    4    5     2     1    6.4556E+00  2.7527E-01   6.1803E+00  0.000E+00  0.000E+00  0.000E+00  1.07246E+03  5.290E-01  1.200E+01  7.800E-02  1.176E+00
   1    5    6     2     2    6.1803E+00  2.1100E-01   5.9693E+00  0.000E+00  0.000E+00  0.000E+00  1.06703E+03  5.167E-01  1.200E+01  6.000E-02  1.172E+00
   1    6    6     2     3    5.9693E+00  2.1035E-01   5.7589E+00  0.000E+00  0.000E+00  0.000E+00  1.06230E+03  5.059E-01  1.200E+01  6.000E-02  1.169E+00
   1    7    6     2     4    5.7589E+00  2.0970E-01   5.5492E+00  0.000E+00  0.000E+00  0.000E+00  1.05757E+03  4.950E-01  1.200E+01  6.000E-02  1.165E+00
   1    8    6     2     5    5.5492E+00  2.0903E-01   5.3402E+00  0.000E+00  0.000E+00  0.000E+00  1.05284E+03  4.839E-01  1.200E+01  6.000E-02  1.161E+00
   1    3    5     3     1    2.0000E+00  2.8252E-01   1.7175E+00  0.000E+00  0.000E+00  0.000E+00  1.07555E+03  1.909E+00  9.636E+00  7.227E-02  1.955E+00
   1    3    6     3     2    1.7175E+00  2.4905E-01   1.4684E+00  0.000E+00  0.000E+00  0.000E+00  1.07264E+03  1.727E+00  8.909E+00  6.682E-02  1.864E+00
   1    3    7     3     3    1.4684E+00  1.9718E-01   1.2712E+00  0.000E+00  0.000E+00  0.000E+00  1.06987E+03  1.555E+00  8.218E+00  5.547E-02  1.777E+00
   1    4    8     3     4    1.2712E+00  2.2567E-01   1.0456E+00  0.000E+00  0.000E+00  0.000E+00  1.06682E+03  1.364E+00  7.455E+00  6.709E-02  1.682E+00
   1    5    8     3     5    1.0456E+00  1.5790E-01   8.8768E-01  0.000E+00  0.000E+00  0.000E+00  1.06362E+03  1.164E+00  6.655E+00  4.991E-02  1.582E+00
   1    6    8     3     6    8.8768E-01  5.5980E-02   8.3170E-01  0.000E+00  0.000E+00  0.000E+00  1.06158E+03  1.036E+00  6.145E+00  1.844E-02  1.518E+00
   1    5   10     4     1    1.0000E+01  9.0919E-02   9.9091E+00  0.000E+00  0.000E+00  0.000E+00  1.07836E+03  6.368E-01  1.000E+01  2.500E-02  1.212E+00
   1    5    9     4     2    9.9091E+00  1.8158E-01   9.7275E+00  0.000E+00  0.000E+00  0.000E+00  1.07154E+03  6.315E-01  1.000E+01  5.000E-02  1.211E+00
   1    6    8     4     3    9.7275E+00  1.2689E-01   9.6006E+00  0.000E+00  0.000E+00  0.000E+00  1.06381E+03  6.256E-01  1.000E+01  3.500E-02  1.209E+00
   1    6    8     5     1    1.0432E+01  2.2686E-01   1.0205E+01  0.000E+00  0.000E+00  0.000E+00  1.05868E+03  6.790E-01  1.542E+01  6.166E-02  1.226E+00
   1    7    7     5     2    1.0205E+01  2.7894E-01   9.9265E+00  0.000E+00  0.000E+00  0.000E+00  1.05417E+03  6.732E-01  1.519E+01  7.594E-02  1.224E+00
   1    8    7     5     3    9.9265E+00  1.9221E-01   9.7343E+00  0.000E+00  0.000E+00  0.000E+00  1.04992E+03  6.676E-01  1.497E+01  5.241E-02  1.223E+00
   1    8    6     5     4    9.7343E+00  1.3577E-01   9.5985E+00  0.000E+00  0.000E+00  0.000E+00  1.04691E+03  6.637E-01  1.482E+01  3.706E-02  1.221E+00
   1    9    6     6     1    9.5985E+00  2.2097E-01   9.3776E+00  0.000E+00  0.000E+00  0.000E+00  1.04341E+03  6.828E-01  1.200E+01  6.000E-02  1.228E+00
   1   10    7     6     2    9.3776E+00  2.2039E-01   9.1572E+00  0.000E+00  0.000E+00  0.000E+00  1.03885E+03  6.732E-01  1.200E+01  6.000E-02  1.224E+00
   1   11    7     6     3    9.1572E+00  2.1981E-01   8.9374E+00  0.000E+00  0.000E+00  0.000E+00  1.03430E+03  6.636E-01  1.200E+01  6.000E-02  1.221E+00
   1   12    7     6     4    8.9374E+00  2.1923E-01   8.7181E+00  0.000E+00  0.000E+00  0.000E+00  1.02974E+03  6.539E-01  1.200E+01  6.000E-02  1.218E+00
   1   13    7     6     5    8.7181E+00 -2.1720E-02   8.7399E+00  0.000E+00  0.000E+00  0.000E+00  1.02656E+03  6.495E-01  1.200E+01  2.400E-01 -3.017E-02
   1   14    9     7     1    1.5000E+02  1.3768E+00   1.4862E+02  0.000E+00  0.000E+00  0.000E+00  1.03987E+03  2.288E+00  5.529E+01  5.593E-01  8.206E-01
   1   13    8     7     2    1.4862E+02  1.9670E+00   1.4666E+02  0.000E+00  0.000E+00  0.000E+00  1.03478E+03  2.279E+00  5.525E+01  6.147E-01  1.067E+00
   1   13    7     7     3    1.4666E+02  1.6970E+00   1.4496E+02  0.000E+00  0.000E+00  0.000E+00  1.02969E+03  2.269E+00  5.521E+01  5.584E-01  1.013E+00
   1   13    6     8     1    1.5370E+02  1.0527E+00   1.5265E+02  0.000E+00  0.000E+00  0.000E+00  1.02471E+03  2.839E+00  4.117E+01  4.195E-01  8.365E-01
   1   13    5     8     2    1.5265E+02  3.1267E-01   1.5233E+02  0.000E+00  0.000E+00  0.000E+00  1.01846E+03  2.834E+00  4.110E+01  4.188E-01  2.489E-01
   1   13    4     8     3    1.5233E+02 -1.9432E+00   1.5428E+02  0.000E+00  0.000E+00  0.000E+00  1.01221E+03  2.840E+00  4.118E+01  4.196E+00 -1.544E-01
   1   13    3     8     4    1.5428E+02 -3.4006E+00   1.5768E+02  0.000E+00  0.000E+00  0.000E+00  1.00598E+03  2.858E+00  4.145E+01  4.224E+00 -2.684E-01
   1   13    2     8     5    1.5768E+02 -2.5211E+00   1.6020E+02  0.000E+00  0.000E+00  0.000E+00  9.99754E+02  2.879E+00  4.174E+01  4.253E+00 -1.976E-01
   1   13    1     8     6    1.6020E+02 -1.9664E+00   1.6216E+02  0.000E+00  0.000E+00  0.000E+00  9.94769E+02  2.894E+00  4.196E+01  2.566E+00 -2.555E-01
   1    8    6     9     1    5.3402E+00  0.0000E+00   5.3402E+00  0.000E+00  0.000E+00  0.000E+00  1.08031E+03  1.555E+00  4.000E+00  0.000E+00  1.518E+00
   1    8    5     9     2    5.3402E+00  0.0000E+00   5.3402E+00  0.000E+00  0.000E+00  0.000E+00  1.07981E+03  1.555E+00  4.000E+00  0.000E+00  1.518E+00





UNSATURATED ZONE PACKAGE VOLUMETRIC BUDGET FOR  TIME STEP    30 STRESS PERIOD   22
  ------------------------------------------------------------------------------



     CUMULATIVE VOLUMES      L**3       RATES FOR THIS TIME STEP      L**3/T
     ------------------                 ------------------------

           IN:                                      IN:
           ---                                      ---
        INFILTRATION =  1088377606.5300          INFILTRATION =          12.0662

          OUT:                                     OUT:
          ----                                     ----
              UZF ET =   854023729.6883                UZF ET =          12.0675
        UZF RECHARGE =       73224.0000          UZF RECHARGE =       0.0000E+00

            IN - OUT =   234280652.8418              IN - OUT =      -1.2553E-03

          STORAGE:                                 STORAGE:
          --------                                 --------
      STORAGE CHANGE =   234280860.6104        STORAGE CHANGE =      -1.2555E-03

 PERCENT DISCREPANCY IS DIFFERENCE BETWEEN IN-OUT MINUS CHANGE IN STORAGE
 DIVIDED BY THE AVERAGE OF IN AND OUT TIMES 100

 PERCENT DISCREPANCY =          -0.00     PERCENT DISCREPANCY =           0.00






1
  VOLUMETRIC BUDGET FOR AGRICULTURAL FIELDS AT  END OF TIME STEP   30, STRESS PERIOD  22
  ------------------------------------------------------------------------------

     CUMULATIVE VOLUMES      L**3       RATES FOR THIS TIME STEP      L**3/T
     ------------------                 ------------------------

           IN:                                      IN:
           ---                                      ---
               AG WELLS  =   666412096.0000                 AG WELLS  =           5.8784
      DIVERSION SEGMENTS =   375163232.0000        DIVERSION SEGMENTS =           5.3402
       IRRIGATION PONDS  =           0.0000         IRRIGATION PONDS  =           0.0000
           GW IRRIGATION =           0.0000             GW IRRIGATION =           0.0000
           SW IRRIGATION =           0.0000             SW IRRIGATION =           0.0000
        SYSTEM LOSSES GW =           0.0000          SYSTEM LOSSES GW =           0.0000
        SYSTEM LOSSES SW =           0.0000          SYSTEM LOSSES SW =           0.0000

                TOTAL IN =  1041575296.0000                  TOTAL IN =          11.2186

          OUT:                                     OUT:
          ----                                     ----
               AG WELLS  =           0.0000                 AG WELLS  =           0.0000
      DIVERSION SEGMENTS =           0.0000        DIVERSION SEGMENTS =           0.0000
       IRRIGATION PONDS  =           0.0000         IRRIGATION PONDS  =           0.0000
           GW IRRIGATION =   666412096.0000             GW IRRIGATION =           5.8784
           SW IRRIGATION =   375170880.0000             SW IRRIGATION =           5.3403
        SYSTEM LOSSES GW =           0.0000          SYSTEM LOSSES GW =           0.0000
        SYSTEM LOSSES SW =           0.0000          SYSTEM LOSSES SW =           0.0000

               TOTAL OUT =  1041582976.0000                 TOTAL OUT =          11.2187

                IN - OUT =       -7680.0000                  IN - OUT =      -1.0681E-04

     PERCENT DISCREPANCY =          -0.00         PERCENT DISCREPANCY =          -0.00



1
  VOLUMETRIC BUDGET FOR ENTIRE MODEL AT END OF TIME STEP   30, STRESS PERIOD  22
  ------------------------------------------------------------------------------

     CUMULATIVE VOLUMES      L**3       RATES FOR THIS TIME STEP      L**3/T
     ------------------                 ------------------------

           IN:                                      IN:
           ---                                      ---
             STORAGE     =   959790400.0000               STORAGE     =          12.9661
       CONSTANT HEAD     =           0.0000         CONSTANT HEAD     =           0.0000
     HEAD DEP BOUNDS     =    15935162.0000       HEAD DEP BOUNDS     =           0.2885
      STREAM LEAKAGE     =   653118080.0000        STREAM LEAKAGE     =          11.5096
        UZF RECHARGE     =       73223.9531          UZF RECHARGE     =           0.0000
               GW ET     =           0.0000                 GW ET     =           0.0000
     SURFACE LEAKAGE     =           0.0000       SURFACE LEAKAGE     =           0.0000
           AG WELLS      =           0.0000             AG WELLS      =           0.0000

                TOTAL IN =  1628916864.0000                  TOTAL IN =          24.7643

          OUT:                                     OUT:
          ----                                     ----
             STORAGE     =   384964640.0000               STORAGE     =           8.7463
       CONSTANT HEAD     =           0.0000         CONSTANT HEAD     =           0.0000
     HEAD DEP BOUNDS     =    15927439.0000       HEAD DEP BOUNDS     =           0.2863
      STREAM LEAKAGE     =   561616128.0000        STREAM LEAKAGE     =           9.8530
        UZF RECHARGE     =           0.0000          UZF RECHARGE     =           0.0000
               GW ET     =           0.0000                 GW ET     =           0.0000
     SURFACE LEAKAGE     =           0.0000       SURFACE LEAKAGE     =           0.0000
           AG WELLS      =   666412096.0000             AG WELLS      =           5.8784

               TOTAL OUT =  1628920320.0000                 TOTAL OUT =          24.7641

                IN - OUT =       -3456.0000                  IN - OUT =       1.1826E-04

     PERCENT DISCREPANCY =          -0.00         PERCENT DISCREPANCY =           0.00






         TIME SUMMARY AT END OF TIME STEP   30 IN STRESS PERIOD   22
                    SECONDS     MINUTES      HOURS       DAYS        YEARS
                    -----------------------------------------------------------
   TIME STEP LENGTH  87667.      1461.1      24.352      1.0147     2.77799E-03
 STRESS PERIOD TIME 2.63000E+06  43833.      730.56      30.440     8.33397E-02
         TOTAL TIME 5.53166E+07 9.21944E+05  15366.      640.24      1.7529    
1
1
                            STRESS PERIOD NO.   23, LENGTH =   2630000.    
                            -----------------------------------------------

                              NUMBER OF TIME STEPS =    30

                               MULTIPLIER FOR DELT =     1.000

                            INITIAL TIME STEP SIZE =   87666.66    

 REUSING NON-PARAMETER GHB CELLS FROM LAST STRESS PERIOD

      2 GHB CELLS

 REUSING STREAM SEGMENT DATA FROM LAST STRESS PERIOD



            AREAL INFILTRATION RATE
 READING ON UNIT   19 WITH FORMAT: (FREE)              

            1           2           3           4           5           6           7           8           9          10
 ........................................................................................................................
   1   1.0000E-10  2.0000E-10   0.000       0.000       0.000       0.000       0.000       0.000       0.000       0.000    
   2   2.0000E-10  1.0000E-10  2.0000E-10   0.000       0.000      8.0000E-10  8.0000E-10  5.0000E-10   0.000       0.000    
   3    0.000      5.0000E-10  1.0000E-10  1.0000E-10  8.0000E-10  8.0000E-10  5.0000E-10  5.0000E-10   0.000       0.000    
   4   8.0000E-10  5.0000E-10  1.0000E-10  1.0000E-10  1.0000E-10  1.0000E-10  1.0000E-10  1.0000E-10  2.0000E-10   0.000    
   5   8.0000E-10  5.0000E-10  1.0000E-10  1.0000E-10  1.0000E-10  1.0000E-10  1.0000E-10  1.0000E-10  1.0000E-10  1.0000E-10
   6   8.0000E-10  5.0000E-10  5.0000E-10  2.0000E-10  2.0000E-10  1.0000E-10  1.0000E-10  1.0000E-10  1.0000E-10  5.0000E-10
   7   8.0000E-10  5.0000E-10  5.0000E-10  2.0000E-10  2.0000E-10  1.0000E-10  1.0000E-10  2.0000E-10  2.0000E-10   0.000    
   8    0.000      5.0000E-10  5.0000E-10  2.0000E-10  2.0000E-10  1.0000E-10  1.0000E-10  2.0000E-10  5.0000E-10   0.000    
   9    0.000      5.0000E-10  5.0000E-10  2.0000E-10  2.0000E-10  1.0000E-10  1.0000E-10  2.0000E-10  5.0000E-10   0.000    
  10    0.000      5.0000E-10  5.0000E-10  2.0000E-10  2.0000E-10  1.0000E-10  1.0000E-10  2.0000E-10  5.0000E-10  8.0000E-10
  11    0.000      1.0000E-10  1.0000E-10  1.0000E-10  1.0000E-10  1.0000E-10  1.0000E-10  2.0000E-10  5.0000E-10   0.000    
  12   1.0000E-10  1.0000E-10  1.0000E-10  1.0000E-10  1.0000E-10  1.0000E-10  1.0000E-10  1.0000E-10  2.0000E-10   0.000    
  13   1.0000E-10  1.0000E-10  2.0000E-10  2.0000E-10  2.0000E-10  2.0000E-10  2.0000E-10  1.0000E-10  1.0000E-10   0.000    
  14    0.000      2.0000E-10  5.0000E-10  5.0000E-10  5.0000E-10  5.0000E-10  5.0000E-10  2.0000E-10  1.0000E-10   0.000    
  15    0.000       0.000      8.0000E-10  8.0000E-10  8.0000E-10  8.0000E-10   0.000       0.000       0.000       0.000    

                  ET RATE =  5.000000E-09

 USING ET EXTINCTION DEPTH FROM PREVIOUS STRESS PERIOD. CURRENT PERIOD IS:      23

 USING EXTINCTION WATER CONTENT FROM PREVIOUS STRESS PERIOD. CURRENT PERIOD IS:      23

 USING AIR ENTRY PRESSURE FROM PREVIOUS STRESS PERIOD. CURRENT PERIOD IS:      23

 USING ROOT PRESSURE HEAD FROM PREVIOUS STRESS PERIOD. CURRENT PERIOD IS:      23

 USING ROOT ACTIVITY FROM PREVIOUS STRESS PERIOD. CURRENT PERIOD IS:      23

 PROCESSING AG STRESS PERIOD DATA

 READING AG STRESS PERIOD DATA

 READING IRRIGATION SEGMENT

 READING IRRIGATION WELL

 READING SUPPLEMENTAL WELL

 NO IRRPOND OR REUSING IRRPOND DATA FROM LAST STRESS PERIOD

 END PROCESSING AG STRESS PERIOD DATA OPTIONS
 
 SOLVING FOR HEAD 
                                                   Max.-Head-Change                         Max.-Flux-Residual
  Residual-Control   Outer-Iter.   Inner-Iter.     Column Row Layer    Maximum-Head-Change  Column Row Layer    Maximum-Flux-Residual          L2-NORM 
          0                 1           2             4    7     1       0.5395958290E-01       4    7    1         0.2835514317E+01      0.6247701603E+01
          0                 2           2             4    7     1      -0.5248832465E-02       4    7    1        -0.2835539225E+00      0.6251084515E+00
          0                 3           2             4    7     1       0.3574256756E-03       4    7    1         0.1984875958E-01      0.4375649326E-01
          0                 4           1             4    7     1      -0.1422230354E-04       4    7    1        -0.8118154994E-03      0.1789584671E-02

    ------------------------------------------------
       NWT REQUIRED            4 OUTER ITERATIONS 
       AND A TOTAL OF          7 INNER ITERATIONS.
    ------------------------------------------------

 NO OUTPUT CONTROL FOR STRESS PERIOD   23   TIME STEP    1
 
 SOLVING FOR HEAD 
                                                   Max.-Head-Change                         Max.-Flux-Residual
  Residual-Control   Outer-Iter.   Inner-Iter.     Column Row Layer    Maximum-Head-Change  Column Row Layer    Maximum-Flux-Residual          L2-NORM 
          0                 1           2             4    7     1       0.5333993882E-01       4    7    1         0.2803605787E+01      0.6128009307E+01
          0                 2           2             4    7     1      -0.5188558714E-02       4    7    1        -0.2803631170E+00      0.6127916163E+00
          0                 3           2             4    7     1       0.3533212495E-03       4    7    1         0.1962540265E-01      0.4289479910E-01
          0                 4           1             4    7     1      -0.1405898445E-04       4    7    1        -0.8026801838E-03      0.1754335436E-02

    ------------------------------------------------
       NWT REQUIRED            4 OUTER ITERATIONS 
       AND A TOTAL OF          7 INNER ITERATIONS.
    ------------------------------------------------

 NO OUTPUT CONTROL FOR STRESS PERIOD   23   TIME STEP    2
 
 SOLVING FOR HEAD 
                                                   Max.-Head-Change                         Max.-Flux-Residual
  Residual-Control   Outer-Iter.   Inner-Iter.     Column Row Layer    Maximum-Head-Change  Column Row Layer    Maximum-Flux-Residual          L2-NORM 
          0                 1           2             4    7     1       0.5271584739E-01       4    7    1         0.2771405658E+01      0.6012675236E+01
          0                 2           2             4    7     1      -0.5127852198E-02       4    7    1        -0.2771431410E+00      0.6012543704E+00
          0                 3           2             4    7     1       0.3491873557E-03       4    7    1         0.1940000389E-01      0.4208707569E-01
          0                 4           1             4    7     1      -0.1389449324E-04       4    7    1        -0.7934613786E-03      0.1721321653E-02

    ------------------------------------------------
       NWT REQUIRED            4 OUTER ITERATIONS 
       AND A TOTAL OF          7 INNER ITERATIONS.
    ------------------------------------------------

 NO OUTPUT CONTROL FOR STRESS PERIOD   23   TIME STEP    3
 
 SOLVING FOR HEAD 
                                                   Max.-Head-Change                         Max.-Flux-Residual
  Residual-Control   Outer-Iter.   Inner-Iter.     Column Row Layer    Maximum-Head-Change  Column Row Layer    Maximum-Flux-Residual          L2-NORM 
          0                 1           2             4    7     1       0.5208853735E-01       4    7    1         0.2738982187E+01      0.5901448066E+01
          0                 2           2             4    7     1      -0.5066832457E-02       4    7    1        -0.2739008212E+00      0.5901386644E+00
          0                 3           2             4    7     1       0.3450321333E-03       4    7    1         0.1917304115E-01      0.4130907085E-01
          0                 4           1             4    7     1      -0.1372915331E-04       4    7    1        -0.7841785891E-03      0.1689501730E-02

    ------------------------------------------------
       NWT REQUIRED            4 OUTER ITERATIONS 
       AND A TOTAL OF          7 INNER ITERATIONS.
    ------------------------------------------------

 NO OUTPUT CONTROL FOR STRESS PERIOD   23   TIME STEP    4
 
 SOLVING FOR HEAD 
                                                   Max.-Head-Change                         Max.-Flux-Residual
  Residual-Control   Outer-Iter.   Inner-Iter.     Column Row Layer    Maximum-Head-Change  Column Row Layer    Maximum-Flux-Residual          L2-NORM 
          0                 1           2             4    7     1       0.5145902219E-01       4    7    1         0.2706391819E+01      0.5794081879E+01
          0                 2           2             4    7     1      -0.5005598088E-02       4    7    1        -0.2706418031E+00      0.5794031444E+00
          0                 3           2             4    7     1       0.3408622970E-03       4    7    1         0.1894490960E-01      0.4055767164E-01
          0                 4           1             4    7     1      -0.1356323118E-04       4    7    1        -0.7748479918E-03      0.1658753199E-02

    ------------------------------------------------
       NWT REQUIRED            4 OUTER ITERATIONS 
       AND A TOTAL OF          7 INNER ITERATIONS.
    ------------------------------------------------

 NO OUTPUT CONTROL FOR STRESS PERIOD   23   TIME STEP    5
 
 SOLVING FOR HEAD 
                                                   Max.-Head-Change                         Max.-Flux-Residual
  Residual-Control   Outer-Iter.   Inner-Iter.     Column Row Layer    Maximum-Head-Change  Column Row Layer    Maximum-Flux-Residual          L2-NORM 
          0                 1           2             4    7     1       0.5082824107E-01       4    7    1         0.2673687101E+01      0.5690368899E+01
          0                 2           2             4    7     1      -0.4944240458E-02       4    7    1        -0.2673713421E+00      0.5690328271E+00
          0                 3           2             4    7     1       0.3366840680E-03       4    7    1         0.1871597713E-01      0.3983186106E-01
          0                 4           1             4    7     1      -0.1339697553E-04       4    7    1        -0.7654846365E-03      0.1629097145E-02

    ------------------------------------------------
       NWT REQUIRED            4 OUTER ITERATIONS 
       AND A TOTAL OF          7 INNER ITERATIONS.
    ------------------------------------------------

 NO OUTPUT CONTROL FOR STRESS PERIOD   23   TIME STEP    6
 
 SOLVING FOR HEAD 
                                                   Max.-Head-Change                         Max.-Flux-Residual
  Residual-Control   Outer-Iter.   Inner-Iter.     Column Row Layer    Maximum-Head-Change  Column Row Layer    Maximum-Flux-Residual          L2-NORM 
          0                 1           2             4    7     1       0.5019692668E-01       4    7    1         0.2640909458E+01      0.5590098759E+01
          0                 2           2             4    7     1      -0.4882830851E-02       4    7    1        -0.2640935816E+00      0.5590066448E+00
          0                 3           2             4    7     1       0.3325023009E-03       4    7    1         0.1848653376E-01      0.3913007500E-01
          0                 4           1             4    7     1      -0.1323057954E-04       4    7    1        -0.7561004079E-03      0.1600398921E-02

    ------------------------------------------------
       NWT REQUIRED            4 OUTER ITERATIONS 
       AND A TOTAL OF          7 INNER ITERATIONS.
    ------------------------------------------------

 NO OUTPUT CONTROL FOR STRESS PERIOD   23   TIME STEP    7
 
 SOLVING FOR HEAD 
                                                   Max.-Head-Change                         Max.-Flux-Residual
  Residual-Control   Outer-Iter.   Inner-Iter.     Column Row Layer    Maximum-Head-Change  Column Row Layer    Maximum-Flux-Residual          L2-NORM 
          0                 1           2             4    7     1       0.4956588944E-01       4    7    1         0.2608104147E+01      0.5493099523E+01
          0                 2           2             4    7     1      -0.4821448108E-02       4    7    1        -0.2608130480E+00      0.5493074174E+00
          0                 3           2             4    7     1       0.3283223642E-03       4    7    1         0.1825689633E-01      0.3845120247E-01
          0                 4           1             4    7     1      -0.1306425596E-04       4    7    1        -0.7467082264E-03      0.1572631811E-02

    ------------------------------------------------
       NWT REQUIRED            4 OUTER ITERATIONS 
       AND A TOTAL OF          7 INNER ITERATIONS.
    ------------------------------------------------

 NO OUTPUT CONTROL FOR STRESS PERIOD   23   TIME STEP    8
 
 SOLVING FOR HEAD 
                                                   Max.-Head-Change                         Max.-Flux-Residual
  Residual-Control   Outer-Iter.   Inner-Iter.     Column Row Layer    Maximum-Head-Change  Column Row Layer    Maximum-Flux-Residual          L2-NORM 
          0                 1           2             4    7     1       0.4893613948E-01       4    7    1         0.2575327731E+01      0.5399195841E+01
          0                 2           2             4    7     1      -0.4760190498E-02       4    7    1        -0.2575353981E+00      0.5399176517E+00
          0                 3           2             4    7     1       0.3241509489E-03       4    7    1         0.1802746082E-01      0.3779394518E-01
          0                 4           1             4    7     1      -0.1289827132E-04       4    7    1        -0.7373242956E-03      0.1545736366E-02

    ------------------------------------------------
       NWT REQUIRED            4 OUTER ITERATIONS 
       AND A TOTAL OF          7 INNER ITERATIONS.
    ------------------------------------------------

 NO OUTPUT CONTROL FOR STRESS PERIOD   23   TIME STEP    9
 
 SOLVING FOR HEAD 
                                                   Max.-Head-Change                         Max.-Flux-Residual
  Residual-Control   Outer-Iter.   Inner-Iter.     Column Row Layer    Maximum-Head-Change  Column Row Layer    Maximum-Flux-Residual          L2-NORM 
          0                 1           2             4    7     1       0.4830794878E-01       4    7    1         0.2542596228E+01      0.5308221755E+01
          0                 2           2             4    7     1      -0.4699084484E-02       4    7    1        -0.2542622344E+00      0.5308207605E+00
          0                 3           2             4    7     1       0.3199898575E-03       4    7    1         0.1779833938E-01      0.3715723521E-01
          0                 4           1             4    7     1      -0.1273269768E-04       4    7    1        -0.7279532081E-03      0.1519726976E-02

    ------------------------------------------------
       NWT REQUIRED            4 OUTER ITERATIONS 
       AND A TOTAL OF          7 INNER ITERATIONS.
    ------------------------------------------------

 NO OUTPUT CONTROL FOR STRESS PERIOD   23   TIME STEP   10
 
 SOLVING FOR HEAD 
                                                   Max.-Head-Change                         Max.-Flux-Residual
  Residual-Control   Outer-Iter.   Inner-Iter.     Column Row Layer    Maximum-Head-Change  Column Row Layer    Maximum-Flux-Residual          L2-NORM 
          0                 1           2             4    7     1       0.4768235348E-01       4    7    1         0.2509967368E+01      0.5220043587E+01
          0                 2           2             4    7     1      -0.4638230866E-02       4    7    1        -0.2509993306E+00      0.5220034021E+00
          0                 3           2             4    7     1       0.3158459544E-03       4    7    1         0.1756993620E-01      0.3654005830E-01
          0                 4           1             4    7     1      -0.1256780756E-04       4    7    1        -0.7186114954E-03      0.1494482873E-02

    ------------------------------------------------
       NWT REQUIRED            4 OUTER ITERATIONS 
       AND A TOTAL OF          7 INNER ITERATIONS.
    ------------------------------------------------

 NO OUTPUT CONTROL FOR STRESS PERIOD   23   TIME STEP   11
 
 SOLVING FOR HEAD 
                                                   Max.-Head-Change                         Max.-Flux-Residual
  Residual-Control   Outer-Iter.   Inner-Iter.     Column Row Layer    Maximum-Head-Change  Column Row Layer    Maximum-Flux-Residual          L2-NORM 
          0                 1           2             4    7     1       0.4705964867E-01       4    7    1         0.2477458517E+01      0.5134515348E+01
          0                 2           2             4    7     1      -0.4577658353E-02       4    7    1        -0.2477484236E+00      0.5134509606E+00
          0                 3           2             4    7     1       0.3117211937E-03       4    7    1         0.1734237280E-01      0.3594141222E-01
          0                 4           1             4    7     1      -0.1240367969E-04       4    7    1        -0.7093041500E-03      0.1470031764E-02

    ------------------------------------------------
       NWT REQUIRED            4 OUTER ITERATIONS 
       AND A TOTAL OF          7 INNER ITERATIONS.
    ------------------------------------------------

 NO OUTPUT CONTROL FOR STRESS PERIOD   23   TIME STEP   12
 
 SOLVING FOR HEAD 
                                                   Max.-Head-Change                         Max.-Flux-Residual
  Residual-Control   Outer-Iter.   Inner-Iter.     Column Row Layer    Maximum-Head-Change  Column Row Layer    Maximum-Flux-Residual          L2-NORM 
          0                 1           2             4    7     1       0.4644049709E-01       4    7    1         0.2445106790E+01      0.5051520143E+01
          0                 2           2             4    7     1      -0.4517431420E-02       4    7    1        -0.2445132255E+00      0.5051517397E+00
          0                 3           2             4    7     1       0.3076199664E-03       4    7    1         0.1711590908E-01      0.3536048977E-01
          0                 4           1             4    7     1      -0.1224048782E-04       4    7    1        -0.7000417575E-03      0.1446242343E-02

    ------------------------------------------------
       NWT REQUIRED            4 OUTER ITERATIONS 
       AND A TOTAL OF          7 INNER ITERATIONS.
    ------------------------------------------------

 NO OUTPUT CONTROL FOR STRESS PERIOD   23   TIME STEP   13
 
 SOLVING FOR HEAD 
                                                   Max.-Head-Change                         Max.-Flux-Residual
  Residual-Control   Outer-Iter.   Inner-Iter.     Column Row Layer    Maximum-Head-Change  Column Row Layer    Maximum-Flux-Residual          L2-NORM 
          0                 1           2             4    7     1       0.4582537092E-01       4    7    1         0.2412939279E+01      0.4970929521E+01
          0                 2           2             4    7     1      -0.4457596003E-02       4    7    1        -0.2412964458E+00      0.4970929409E+00
          0                 3           2             4    7     1       0.3035454006E-03       4    7    1         0.1689073468E-01      0.3479637367E-01
          0                 4           1             4    7     1      -0.1207835707E-04       4    7    1        -0.6908321200E-03      0.1423164949E-02

    ------------------------------------------------
       NWT REQUIRED            4 OUTER ITERATIONS 
       AND A TOTAL OF          7 INNER ITERATIONS.
    ------------------------------------------------

 NO OUTPUT CONTROL FOR STRESS PERIOD   23   TIME STEP   14
 
 SOLVING FOR HEAD 
                                                   Max.-Head-Change                         Max.-Flux-Residual
  Residual-Control   Outer-Iter.   Inner-Iter.     Column Row Layer    Maximum-Head-Change  Column Row Layer    Maximum-Flux-Residual          L2-NORM 
          0                 1           2             4    7     1       0.4521456667E-01       4    7    1         0.2380973189E+01      0.4892635090E+01
          0                 2           2             4    7     1      -0.4398180950E-02       4    7    1        -0.2380998055E+00      0.4892637445E+00
          0                 3           2             4    7     1       0.2994994602E-03       4    7    1         0.1666697006E-01      0.3424837338E-01
          0                 4           1             4    7     1      -0.1191736574E-04       4    7    1        -0.6816801322E-03      0.1400766474E-02

    ------------------------------------------------
       NWT REQUIRED            4 OUTER ITERATIONS 
       AND A TOTAL OF          7 INNER ITERATIONS.
    ------------------------------------------------

 NO OUTPUT CONTROL FOR STRESS PERIOD   23   TIME STEP   15
 
 SOLVING FOR HEAD 
                                                   Max.-Head-Change                         Max.-Flux-Residual
  Residual-Control   Outer-Iter.   Inner-Iter.     Column Row Layer    Maximum-Head-Change  Column Row Layer    Maximum-Flux-Residual          L2-NORM 
          0                 1           2             4    7     1       0.4460874485E-01       4    7    1         0.2349245721E+01      0.4816537138E+01
          0                 2           2             4    7     1      -0.4339250518E-02       4    7    1        -0.2349270251E+00      0.4816541532E+00
          0                 3           2             4    7     1       0.2954865208E-03       4    7    1         0.1644487566E-01      0.3371573775E-01
          0                 4           1             4    7     1      -0.1175768652E-04       4    7    1        -0.6725964436E-03      0.1378976968E-02

    ------------------------------------------------
       NWT REQUIRED            4 OUTER ITERATIONS 
       AND A TOTAL OF          7 INNER ITERATIONS.
    ------------------------------------------------

 NO OUTPUT CONTROL FOR STRESS PERIOD   23   TIME STEP   16
 
 SOLVING FOR HEAD 
                                                   Max.-Head-Change                         Max.-Flux-Residual
  Residual-Control   Outer-Iter.   Inner-Iter.     Column Row Layer    Maximum-Head-Change  Column Row Layer    Maximum-Flux-Residual          L2-NORM 
          0                 1           2             4    7     1       0.4400798306E-01       4    7    1         0.2317762018E+01      0.4742537958E+01
          0                 2           2             4    7     1      -0.4280811426E-02       4    7    1        -0.2317786193E+00      0.4742270355E+00
          0                 3           2             4    7     1       0.2915070405E-03       4    7    1         0.1622448748E-01      0.3319582917E-01
          0                 4           1             4    7     1      -0.1159933933E-04       4    7    1        -0.6635825559E-03      0.1357710655E-02

    ------------------------------------------------
       NWT REQUIRED            4 OUTER ITERATIONS 
       AND A TOTAL OF          7 INNER ITERATIONS.
    ------------------------------------------------

 NO OUTPUT CONTROL FOR STRESS PERIOD   23   TIME STEP   17
 
 SOLVING FOR HEAD 
                                                   Max.-Head-Change                         Max.-Flux-Residual
  Residual-Control   Outer-Iter.   Inner-Iter.     Column Row Layer    Maximum-Head-Change  Column Row Layer    Maximum-Flux-Residual          L2-NORM 
          0                 1           2             4    7     1       0.4341287226E-01       4    7    1         0.2286555256E+01      0.4670575754E+01
          0                 2           2             4    7     1      -0.4222923660E-02       4    7    1        -0.2286579057E+00      0.4670583065E+00
          0                 3           2             4    7     1       0.2875651036E-03       4    7    1         0.1600603778E-01      0.3269402723E-01
          0                 4           1             4    7     1      -0.1144248615E-04       4    7    1        -0.6546479601E-03      0.1337180563E-02

    ------------------------------------------------
       NWT REQUIRED            4 OUTER ITERATIONS 
       AND A TOTAL OF          7 INNER ITERATIONS.
    ------------------------------------------------

 NO OUTPUT CONTROL FOR STRESS PERIOD   23   TIME STEP   18
 
 SOLVING FOR HEAD 
                                                   Max.-Head-Change                         Max.-Flux-Residual
  Residual-Control   Outer-Iter.   Inner-Iter.     Column Row Layer    Maximum-Head-Change  Column Row Layer    Maximum-Flux-Residual          L2-NORM 
          0                 1           2             4    7     1       0.4282341782E-01       4    7    1         0.2255626832E+01      0.4600535491E+01
          0                 2           2             4    7     1      -0.4165585249E-02       4    7    1        -0.2255650245E+00      0.4600543734E+00
          0                 3           2             4    7     1       0.2836605763E-03       4    7    1         0.1578953639E-01      0.3220375707E-01
          0                 4           1             4    7     1      -0.1128712134E-04       4    7    1        -0.6457930490E-03      0.1317132402E-02

    ------------------------------------------------
       NWT REQUIRED            4 OUTER ITERATIONS 
       AND A TOTAL OF          7 INNER ITERATIONS.
    ------------------------------------------------

 NO OUTPUT CONTROL FOR STRESS PERIOD   23   TIME STEP   19
 
 SOLVING FOR HEAD 
                                                   Max.-Head-Change                         Max.-Flux-Residual
  Residual-Control   Outer-Iter.   Inner-Iter.     Column Row Layer    Maximum-Head-Change  Column Row Layer    Maximum-Flux-Residual          L2-NORM 
          0                 1           2             4    7     1       0.4224014308E-01       4    7    1         0.2225006270E+01      0.4532344532E+01
          0                 2           2             4    7     1      -0.4108847937E-02       4    7    1        -0.2225029283E+00      0.4532353601E+00
          0                 3           2             4    7     1       0.2797969811E-03       4    7    1         0.1557518993E-01      0.3172643189E-01
          0                 4           1             4    7     1      -0.1113338535E-04       4    7    1        -0.6370262558E-03      0.1297604855E-02

    ------------------------------------------------
       NWT REQUIRED            4 OUTER ITERATIONS 
       AND A TOTAL OF          7 INNER ITERATIONS.
    ------------------------------------------------

 NO OUTPUT CONTROL FOR STRESS PERIOD   23   TIME STEP   20
 
 SOLVING FOR HEAD 
                                                   Max.-Head-Change                         Max.-Flux-Residual
  Residual-Control   Outer-Iter.   Inner-Iter.     Column Row Layer    Maximum-Head-Change  Column Row Layer    Maximum-Flux-Residual          L2-NORM 
          0                 1           2             4    7     1       0.4166312773E-01       4    7    1         0.2194698826E+01      0.4465920948E+01
          0                 2           2             4    7     1      -0.4052719479E-02       4    7    1        -0.2194721429E+00      0.4465930807E+00
          0                 3           2             4    7     1       0.2759748471E-03       4    7    1         0.1536303526E-01      0.3126149433E-01
          0                 4           1             4    7     1      -0.1098129891E-04       4    7    1        -0.6283491173E-03      0.1278595550E-02

    ------------------------------------------------
       NWT REQUIRED            4 OUTER ITERATIONS 
       AND A TOTAL OF          7 INNER ITERATIONS.
    ------------------------------------------------

 NO OUTPUT CONTROL FOR STRESS PERIOD   23   TIME STEP   21
 
 SOLVING FOR HEAD 
                                                   Max.-Head-Change                         Max.-Flux-Residual
  Residual-Control   Outer-Iter.   Inner-Iter.     Column Row Layer    Maximum-Head-Change  Column Row Layer    Maximum-Flux-Residual          L2-NORM 
          0                 1           2             4    7     1       0.4109269797E-01       4    7    1         0.2164723191E+01      0.4401199822E+01
          0                 2           2             4    7     1      -0.3997231607E-02       4    7    1        -0.2164745376E+00      0.4401210131E+00
          0                 3           2             4    7     1       0.2721963346E-03       4    7    1         0.1515320319E-01      0.3080842526E-01
          0                 4           1             4    7     1      -0.1083094825E-04       4    7    1        -0.6197669745E-03      0.1260056214E-02

    ------------------------------------------------
       NWT REQUIRED            4 OUTER ITERATIONS 
       AND A TOTAL OF          7 INNER ITERATIONS.
    ------------------------------------------------

 NO OUTPUT CONTROL FOR STRESS PERIOD   23   TIME STEP   22
 
 SOLVING FOR HEAD 
                                                   Max.-Head-Change                         Max.-Flux-Residual
  Residual-Control   Outer-Iter.   Inner-Iter.     Column Row Layer    Maximum-Head-Change  Column Row Layer    Maximum-Flux-Residual          L2-NORM 
          0                 1           2             4    7     1       0.4052888042E-01       4    7    1         0.2135081716E+01      0.4338109568E+01
          0                 2           2             4    7     1      -0.3942386913E-02       4    7    1        -0.2135103478E+00      0.4338120240E+00
          0                 3           2             4    7     1       0.2684616205E-03       4    7    1         0.1494571021E-01      0.3036682097E-01
          0                 4           1             4    7     1      -0.1068234074E-04       4    7    1        -0.6112805113E-03      0.1242000996E-02

    ------------------------------------------------
       NWT REQUIRED            4 OUTER ITERATIONS 
       AND A TOTAL OF          7 INNER ITERATIONS.
    ------------------------------------------------

 NO OUTPUT CONTROL FOR STRESS PERIOD   23   TIME STEP   23
 
 SOLVING FOR HEAD 
                                                   Max.-Head-Change                         Max.-Flux-Residual
  Residual-Control   Outer-Iter.   Inner-Iter.     Column Row Layer    Maximum-Head-Change  Column Row Layer    Maximum-Flux-Residual          L2-NORM 
          0                 1           2             4    7     1       0.3997195450E-01       4    7    1         0.2105790345E+01      0.4276587475E+01
          0                 2           2             4    7     1      -0.3888212582E-02       4    7    1        -0.2105811680E+00      0.4276598493E+00
          0                 3           2             4    7     1       0.2647725556E-03       4    7    1         0.1474066794E-01      0.2993618134E-01
          0                 4           1             4    7     1      -0.1053554937E-04       4    7    1        -0.6028942623E-03      0.1224396092E-02

    ------------------------------------------------
       NWT REQUIRED            4 OUTER ITERATIONS 
       AND A TOTAL OF          7 INNER ITERATIONS.
    ------------------------------------------------

 NO OUTPUT CONTROL FOR STRESS PERIOD   23   TIME STEP   24
 
 SOLVING FOR HEAD 
                                                   Max.-Head-Change                         Max.-Flux-Residual
  Residual-Control   Outer-Iter.   Inner-Iter.     Column Row Layer    Maximum-Head-Change  Column Row Layer    Maximum-Flux-Residual          L2-NORM 
          0                 1           2             4    7     1       0.3942190208E-01       4    7    1         0.2076849004E+01      0.4216576794E+01
          0                 2           2             4    7     1      -0.3834706850E-02       4    7    1        -0.2076869908E+00      0.4216588031E+00
          0                 3           2             4    7     1       0.2611290196E-03       4    7    1         0.1453807585E-01      0.2951611417E-01
          0                 4           1             4    7     1      -0.1039056975E-04       4    7    1        -0.5946082297E-03      0.1207209589E-02

    ------------------------------------------------
       NWT REQUIRED            4 OUTER ITERATIONS 
       AND A TOTAL OF          7 INNER ITERATIONS.
    ------------------------------------------------

 NO OUTPUT CONTROL FOR STRESS PERIOD   23   TIME STEP   25
 
 SOLVING FOR HEAD 
                                                   Max.-Head-Change                         Max.-Flux-Residual
  Residual-Control   Outer-Iter.   Inner-Iter.     Column Row Layer    Maximum-Head-Change  Column Row Layer    Maximum-Flux-Residual          L2-NORM 
          0                 1           2             4    7     1       0.3887895938E-01       4    7    1         0.2048271315E+01      0.4158021471E+01
          0                 2           2             4    7     1      -0.3781892698E-02       4    7    1        -0.2048291787E+00      0.4158032774E+00
          0                 3           2             4    7     1       0.2575325775E-03       4    7    1         0.1433802933E-01      0.2910622185E-01
          0                 4           1             4    7     1      -0.1024746338E-04       4    7    1        -0.5864262898E-03      0.1190447163E-02

    ------------------------------------------------
       NWT REQUIRED            4 OUTER ITERATIONS 
       AND A TOTAL OF          7 INNER ITERATIONS.
    ------------------------------------------------

 NO OUTPUT CONTROL FOR STRESS PERIOD   23   TIME STEP   26
 
 SOLVING FOR HEAD 
                                                   Max.-Head-Change                         Max.-Flux-Residual
  Residual-Control   Outer-Iter.   Inner-Iter.     Column Row Layer    Maximum-Head-Change  Column Row Layer    Maximum-Flux-Residual          L2-NORM 
          0                 1           2             4    7     1       0.3834320245E-01       4    7    1         0.2020062244E+01      0.4100868784E+01
          0                 2           2             4    7     1      -0.3729777525E-02       4    7    1        -0.2020082285E+00      0.4100880122E+00
          0                 3           2             4    7     1       0.2539837340E-03       4    7    1         0.1414056315E-01      0.2870615766E-01
          0                 4           1             4    7     1      -0.1010625155E-04       4    7    1        -0.5783499178E-03      0.1174083964E-02

    ------------------------------------------------
       NWT REQUIRED            4 OUTER ITERATIONS 
       AND A TOTAL OF          7 INNER ITERATIONS.
    ------------------------------------------------

 NO OUTPUT CONTROL FOR STRESS PERIOD   23   TIME STEP   27
 
 SOLVING FOR HEAD 
                                                   Max.-Head-Change                         Max.-Flux-Residual
  Residual-Control   Outer-Iter.   Inner-Iter.     Column Row Layer    Maximum-Head-Change  Column Row Layer    Maximum-Flux-Residual          L2-NORM 
          0                 1           2             4    7     1       0.3781469216E-01       4    7    1         0.1992225737E+01      0.4045063111E+01
          0                 2           2             4    7     1      -0.3678367254E-02       4    7    1        -0.1992245346E+00      0.4045074417E+00
          0                 3           2             4    7     1       0.2504828911E-03       4    7    1         0.1394570489E-01      0.2831552030E-01
          0                 4           1             4    7     1      -0.9966949921E-05       4    7    1        -0.5703802110E-03      0.1158108850E-02

    ------------------------------------------------
       NWT REQUIRED            4 OUTER ITERATIONS 
       AND A TOTAL OF          7 INNER ITERATIONS.
    ------------------------------------------------

 NO OUTPUT CONTROL FOR STRESS PERIOD   23   TIME STEP   28
 
 SOLVING FOR HEAD 
                                                   Max.-Head-Change                         Max.-Flux-Residual
  Residual-Control   Outer-Iter.   Inner-Iter.     Column Row Layer    Maximum-Head-Change  Column Row Layer    Maximum-Flux-Residual          L2-NORM 
          0                 1           2             4    7     1       0.3729360757E-01       4    7    1         0.1964772232E+01      0.3990572343E+01
          0                 2           2             4    7     1      -0.3627679300E-02       4    7    1        -0.1964791413E+00      0.3990547947E+00
          0                 3           2             4    7     1       0.2470312355E-03       4    7    1         0.1375352767E-01      0.2793383402E-01
          0                 4           1             4    7     1      -0.9829605341E-05       4    7    1        -0.5625201534E-03      0.1142495031E-02

    ------------------------------------------------
       NWT REQUIRED            4 OUTER ITERATIONS 
       AND A TOTAL OF          7 INNER ITERATIONS.
    ------------------------------------------------

 NO OUTPUT CONTROL FOR STRESS PERIOD   23   TIME STEP   29
 
 SOLVING FOR HEAD 
                                                   Max.-Head-Change                         Max.-Flux-Residual
  Residual-Control   Outer-Iter.   Inner-Iter.     Column Row Layer    Maximum-Head-Change  Column Row Layer    Maximum-Flux-Residual          L2-NORM 
          0                 1           2             4    7     1       0.3677969935E-01       4    7    1         0.1937689162E+01      0.3937325752E+01
          0                 2           2             4    7     1      -0.3577689423E-02       4    7    1        -0.1937707916E+00      0.3937336898E+00
          0                 3           2             4    7     1       0.2436271167E-03       4    7    1         0.1356394354E-01      0.2756135719E-01
          0                 4           1             4    7     1      -0.9694152308E-05       4    7    1        -0.5547661533E-03      0.1127261744E-02

    ------------------------------------------------
       NWT REQUIRED            4 OUTER ITERATIONS 
       AND A TOTAL OF          7 INNER ITERATIONS.
    ------------------------------------------------

 NO OUTPUT CONTROL FOR STRESS PERIOD   23   TIME STEP   30



 STREAM LISTING     PERIOD     23   STEP       30

 LAYER ROW COL. STREAM  RCH.  FLOW INTO     FLOW TO   FLOW OUT OF   OVRLND.     DIRECT     STREAM       STREAM     STREAM     STREAM   STREAMBED  STREAMBED
                SEG.NO.  NO.  STRM. RCH.    AQUIFER    STRM. RCH.    RUNOFF     PRECIP       ET          HEAD       DEPTH      WIDTH   CONDCTNC.   GRADIENT

   1    1    1     1     1    8.2501E+00  1.3178E-01   8.1183E+00  0.000E+00  0.000E+00  0.000E+00  1.09389E+03  8.424E-01  7.622E+00  3.430E-02  1.281E+00
   1    2    2     1     2    8.1183E+00  2.0241E-01   7.9159E+00  0.000E+00  0.000E+00  0.000E+00  1.08890E+03  8.367E-01  7.537E+00  5.276E-02  1.279E+00
   1    3    3     1     3    7.9159E+00  1.7099E-01   7.7449E+00  0.000E+00  0.000E+00  0.000E+00  1.08325E+03  8.302E-01  7.440E+00  4.464E-02  1.277E+00
   1    3    4     1     4    7.7449E+00  1.5612E-01   7.5888E+00  0.000E+00  0.000E+00  0.000E+00  1.07823E+03  8.244E-01  7.355E+00  4.082E-02  1.275E+00
   1    4    5     2     1    5.5888E+00  2.7178E-01   5.3170E+00  0.000E+00  0.000E+00  0.000E+00  1.07242E+03  4.843E-01  1.200E+01  7.800E-02  1.161E+00
   1    5    6     2     2    5.3170E+00  2.0828E-01   5.1088E+00  0.000E+00  0.000E+00  0.000E+00  1.06698E+03  4.714E-01  1.200E+01  6.000E-02  1.157E+00
   1    6    6     2     3    5.1088E+00  2.0760E-01   4.9012E+00  0.000E+00  0.000E+00  0.000E+00  1.06225E+03  4.600E-01  1.200E+01  6.000E-02  1.153E+00
   1    7    6     2     4    4.9012E+00  2.0691E-01   4.6943E+00  0.000E+00  0.000E+00  0.000E+00  1.05752E+03  4.485E-01  1.200E+01  6.000E-02  1.150E+00
   1    8    6     2     5    4.6943E+00  2.0621E-01   4.4880E+00  0.000E+00  0.000E+00  0.000E+00  1.05280E+03  4.368E-01  1.200E+01  6.000E-02  1.146E+00
   1    3    5     3     1    2.0000E+00  2.8252E-01   1.7175E+00  0.000E+00  0.000E+00  0.000E+00  1.07555E+03  1.909E+00  9.636E+00  7.227E-02  1.955E+00
   1    3    6     3     2    1.7175E+00  2.4905E-01   1.4684E+00  0.000E+00  0.000E+00  0.000E+00  1.07264E+03  1.727E+00  8.909E+00  6.682E-02  1.864E+00
   1    3    7     3     3    1.4684E+00  1.9718E-01   1.2712E+00  0.000E+00  0.000E+00  0.000E+00  1.06987E+03  1.555E+00  8.218E+00  5.547E-02  1.777E+00
   1    4    8     3     4    1.2712E+00  2.2567E-01   1.0456E+00  0.000E+00  0.000E+00  0.000E+00  1.06682E+03  1.364E+00  7.455E+00  6.709E-02  1.682E+00
   1    5    8     3     5    1.0456E+00  1.5790E-01   8.8768E-01  0.000E+00  0.000E+00  0.000E+00  1.06362E+03  1.164E+00  6.655E+00  4.991E-02  1.582E+00
   1    6    8     3     6    8.8768E-01  5.5980E-02   8.3170E-01  0.000E+00  0.000E+00  0.000E+00  1.06158E+03  1.036E+00  6.145E+00  1.844E-02  1.518E+00
   1    5   10     4     1    1.0000E+01  9.0919E-02   9.9091E+00  0.000E+00  0.000E+00  0.000E+00  1.07836E+03  6.368E-01  1.000E+01  2.500E-02  1.212E+00
   1    5    9     4     2    9.9091E+00  1.8158E-01   9.7275E+00  0.000E+00  0.000E+00  0.000E+00  1.07154E+03  6.315E-01  1.000E+01  5.000E-02  1.211E+00
   1    6    8     4     3    9.7275E+00  1.2689E-01   9.6006E+00  0.000E+00  0.000E+00  0.000E+00  1.06381E+03  6.256E-01  1.000E+01  3.500E-02  1.209E+00
   1    6    8     5     1    1.0432E+01  2.2686E-01   1.0205E+01  0.000E+00  0.000E+00  0.000E+00  1.05868E+03  6.790E-01  1.542E+01  6.166E-02  1.226E+00
   1    7    7     5     2    1.0205E+01  2.7894E-01   9.9265E+00  0.000E+00  0.000E+00  0.000E+00  1.05417E+03  6.732E-01  1.519E+01  7.594E-02  1.224E+00
   1    8    7     5     3    9.9265E+00  1.9221E-01   9.7343E+00  0.000E+00  0.000E+00  0.000E+00  1.04992E+03  6.676E-01  1.497E+01  5.241E-02  1.223E+00
   1    8    6     5     4    9.7343E+00  1.3577E-01   9.5985E+00  0.000E+00  0.000E+00  0.000E+00  1.04691E+03  6.637E-01  1.482E+01  3.706E-02  1.221E+00
   1    9    6     6     1    1.4087E+01  2.3167E-01   1.3855E+01  0.000E+00  0.000E+00  0.000E+00  1.04359E+03  8.612E-01  1.200E+01  6.000E-02  1.287E+00
   1   10    7     6     2    1.3855E+01  2.3116E-01   1.3624E+01  0.000E+00  0.000E+00  0.000E+00  1.03903E+03  8.526E-01  1.200E+01  6.000E-02  1.284E+00
   1   11    7     6     3    1.3624E+01  2.3064E-01   1.3393E+01  0.000E+00  0.000E+00  0.000E+00  1.03448E+03  8.440E-01  1.200E+01  6.000E-02  1.281E+00
   1   12    7     6     4    1.3393E+01  2.3012E-01   1.3163E+01  0.000E+00  0.000E+00  0.000E+00  1.02993E+03  8.353E-01  1.200E+01  6.000E-02  1.278E+00
   1   13    7     6     5    1.3163E+01  2.2739E-03   1.3161E+01  0.000E+00  0.000E+00  0.000E+00  1.02674E+03  8.309E-01  1.200E+01  2.400E-02  3.158E-02
   1   14    9     7     1    1.5000E+02  1.3781E+00   1.4862E+02  0.000E+00  0.000E+00  0.000E+00  1.03987E+03  2.288E+00  5.529E+01  5.593E-01  8.213E-01
   1   13    8     7     2    1.4862E+02  1.9709E+00   1.4665E+02  0.000E+00  0.000E+00  0.000E+00  1.03478E+03  2.279E+00  5.525E+01  6.147E-01  1.069E+00
   1   13    7     7     3    1.4665E+02  1.6991E+00   1.4495E+02  0.000E+00  0.000E+00  0.000E+00  1.02969E+03  2.269E+00  5.521E+01  5.584E-01  1.014E+00
   1   13    6     8     1    1.5811E+02  1.0805E+00   1.5703E+02  0.000E+00  0.000E+00  0.000E+00  1.02474E+03  2.869E+00  4.161E+01  4.240E-01  8.495E-01
   1   13    5     8     2    1.5703E+02  3.3312E-01   1.5670E+02  0.000E+00  0.000E+00  0.000E+00  1.01849E+03  2.865E+00  4.154E+01  4.233E-01  2.623E-01
   1   13    4     8     3    1.5670E+02 -1.8836E+00   1.5858E+02  0.000E+00  0.000E+00  0.000E+00  1.01224E+03  2.870E+00  4.161E+01  4.240E+00 -1.481E-01
   1   13    3     8     4    1.5858E+02 -3.3706E+00   1.6195E+02  0.000E+00  0.000E+00  0.000E+00  1.00601E+03  2.888E+00  4.187E+01  4.267E+00 -2.633E-01
   1   13    2     8     5    1.6195E+02 -2.5015E+00   1.6445E+02  0.000E+00  0.000E+00  0.000E+00  9.99782E+02  2.907E+00  4.216E+01  4.296E+00 -1.941E-01
   1   13    1     8     6    1.6445E+02 -1.9503E+00   1.6641E+02  0.000E+00  0.000E+00  0.000E+00  9.94797E+02  2.922E+00  4.237E+01  2.591E+00 -2.509E-01
   1    8    6     9     1    0.0000E+00  0.0000E+00   0.0000E+00  0.000E+00  0.000E+00  0.000E+00  1.07875E+03  0.000E+00  4.000E+00  0.000E+00  1.000E+00
   1    8    5     9     2    0.0000E+00  0.0000E+00   0.0000E+00  0.000E+00  0.000E+00  0.000E+00  1.07825E+03  0.000E+00  4.000E+00  0.000E+00  1.000E+00





UNSATURATED ZONE PACKAGE VOLUMETRIC BUDGET FOR  TIME STEP    30 STRESS PERIOD   23
  ------------------------------------------------------------------------------



     CUMULATIVE VOLUMES      L**3       RATES FOR THIS TIME STEP      L**3/T
     ------------------                 ------------------------

           IN:                                      IN:
           ---                                      ---
        INFILTRATION =  1090606531.4028          INFILTRATION =           0.8475

          OUT:                                     OUT:
          ----                                     ----
              UZF ET =   856315720.8170                UZF ET =           0.8475
        UZF RECHARGE =       73224.0000          UZF RECHARGE =       0.0000E+00

            IN - OUT =   234217586.5858              IN - OUT =       0.0000E+00

          STORAGE:                                 STORAGE:
          --------                                 --------
      STORAGE CHANGE =   234217794.3567        STORAGE CHANGE =      -2.5496E-13

 PERCENT DISCREPANCY IS DIFFERENCE BETWEEN IN-OUT MINUS CHANGE IN STORAGE
 DIVIDED BY THE AVERAGE OF IN AND OUT TIMES 100

 PERCENT DISCREPANCY =          -0.00     PERCENT DISCREPANCY =           0.00






1
  VOLUMETRIC BUDGET FOR AGRICULTURAL FIELDS AT  END OF TIME STEP   30, STRESS PERIOD  23
  ------------------------------------------------------------------------------

     CUMULATIVE VOLUMES      L**3       RATES FOR THIS TIME STEP      L**3/T
     ------------------                 ------------------------

           IN:                                      IN:
           ---                                      ---
               AG WELLS  =   666412096.0000                 AG WELLS  =           0.0000
      DIVERSION SEGMENTS =   375163232.0000        DIVERSION SEGMENTS =           0.0000
       IRRIGATION PONDS  =           0.0000         IRRIGATION PONDS  =           0.0000
           GW IRRIGATION =           0.0000             GW IRRIGATION =           0.0000
           SW IRRIGATION =           0.0000             SW IRRIGATION =           0.0000
        SYSTEM LOSSES GW =           0.0000          SYSTEM LOSSES GW =           0.0000
        SYSTEM LOSSES SW =           0.0000          SYSTEM LOSSES SW =           0.0000

                TOTAL IN =  1041575296.0000                  TOTAL IN =           0.0000

          OUT:                                     OUT:
          ----                                     ----
               AG WELLS  =           0.0000                 AG WELLS  =           0.0000
      DIVERSION SEGMENTS =           0.0000        DIVERSION SEGMENTS =           0.0000
       IRRIGATION PONDS  =           0.0000         IRRIGATION PONDS  =           0.0000
           GW IRRIGATION =   666412096.0000             GW IRRIGATION =           0.0000
           SW IRRIGATION =   375170880.0000             SW IRRIGATION =           0.0000
        SYSTEM LOSSES GW =           0.0000          SYSTEM LOSSES GW =           0.0000
        SYSTEM LOSSES SW =           0.0000          SYSTEM LOSSES SW =           0.0000

               TOTAL OUT =  1041582976.0000                 TOTAL OUT =           0.0000

                IN - OUT =       -7680.0000                  IN - OUT =           0.0000

     PERCENT DISCREPANCY =          -0.00         PERCENT DISCREPANCY =           0.00



1
  VOLUMETRIC BUDGET FOR ENTIRE MODEL AT END OF TIME STEP   30, STRESS PERIOD  23
  ------------------------------------------------------------------------------

     CUMULATIVE VOLUMES      L**3       RATES FOR THIS TIME STEP      L**3/T
     ------------------                 ------------------------

           IN:                                      IN:
           ---                                      ---
             STORAGE     =   986822784.0000               STORAGE     =           8.7517
       CONSTANT HEAD     =           0.0000         CONSTANT HEAD     =           0.0000
     HEAD DEP BOUNDS     =    16694163.0000       HEAD DEP BOUNDS     =           0.2886
      STREAM LEAKAGE     =   683475968.0000        STREAM LEAKAGE     =          11.5511
        UZF RECHARGE     =       73223.9531          UZF RECHARGE     =           0.0000
               GW ET     =           0.0000                 GW ET     =           0.0000
     SURFACE LEAKAGE     =           0.0000       SURFACE LEAKAGE     =           0.0000
           AG WELLS      =           0.0000             AG WELLS      =           0.0000

                TOTAL IN =  1687066112.0000                  TOTAL IN =          20.5914

          OUT:                                     OUT:
          ----                                     ----
             STORAGE     =   416990272.0000               STORAGE     =          10.5984
       CONSTANT HEAD     =           0.0000         CONSTANT HEAD     =           0.0000
     HEAD DEP BOUNDS     =    16681431.0000       HEAD DEP BOUNDS     =           0.2869
      STREAM LEAKAGE     =   586985664.0000        STREAM LEAKAGE     =           9.7061
        UZF RECHARGE     =           0.0000          UZF RECHARGE     =           0.0000
               GW ET     =           0.0000                 GW ET     =           0.0000
     SURFACE LEAKAGE     =           0.0000       SURFACE LEAKAGE     =           0.0000
           AG WELLS      =   666412096.0000             AG WELLS      =           0.0000

               TOTAL OUT =  1687069440.0000                 TOTAL OUT =          20.5914

                IN - OUT =       -3328.0000                  IN - OUT =       1.1444E-05

     PERCENT DISCREPANCY =          -0.00         PERCENT DISCREPANCY =           0.00






         TIME SUMMARY AT END OF TIME STEP   30 IN STRESS PERIOD   23
                    SECONDS     MINUTES      HOURS       DAYS        YEARS
                    -----------------------------------------------------------
   TIME STEP LENGTH  87667.      1461.1      24.352      1.0147     2.77799E-03
 STRESS PERIOD TIME 2.63000E+06  43833.      730.56      30.440     8.33397E-02
         TOTAL TIME 5.79467E+07 9.65778E+05  16096.      670.68      1.8362    
1
1
                            STRESS PERIOD NO.   24, LENGTH =   2630000.    
                            -----------------------------------------------

                              NUMBER OF TIME STEPS =    30

                               MULTIPLIER FOR DELT =     1.000

                            INITIAL TIME STEP SIZE =   87666.66    

 REUSING NON-PARAMETER GHB CELLS FROM LAST STRESS PERIOD

      2 GHB CELLS

 REUSING STREAM SEGMENT DATA FROM LAST STRESS PERIOD



            AREAL INFILTRATION RATE
 READING ON UNIT   19 WITH FORMAT: (FREE)              

            1           2           3           4           5           6           7           8           9          10
 ........................................................................................................................
   1   1.0000E-10  2.0000E-10   0.000       0.000       0.000       0.000       0.000       0.000       0.000       0.000    
   2   2.0000E-10  1.0000E-10  2.0000E-10   0.000       0.000      8.0000E-10  8.0000E-10  5.0000E-10   0.000       0.000    
   3    0.000      5.0000E-10  1.0000E-10  1.0000E-10  8.0000E-10  8.0000E-10  5.0000E-10  5.0000E-10   0.000       0.000    
   4   8.0000E-10  5.0000E-10  1.0000E-10  1.0000E-10  1.0000E-10  1.0000E-10  1.0000E-10  1.0000E-10  2.0000E-10   0.000    
   5   8.0000E-10  5.0000E-10  1.0000E-10  1.0000E-10  1.0000E-10  1.0000E-10  1.0000E-10  1.0000E-10  1.0000E-10  1.0000E-10
   6   8.0000E-10  5.0000E-10  5.0000E-10  2.0000E-10  2.0000E-10  1.0000E-10  1.0000E-10  1.0000E-10  1.0000E-10  5.0000E-10
   7   8.0000E-10  5.0000E-10  5.0000E-10  2.0000E-10  2.0000E-10  1.0000E-10  1.0000E-10  2.0000E-10  2.0000E-10   0.000    
   8    0.000      5.0000E-10  5.0000E-10  2.0000E-10  2.0000E-10  1.0000E-10  1.0000E-10  2.0000E-10  5.0000E-10   0.000    
   9    0.000      5.0000E-10  5.0000E-10  2.0000E-10  2.0000E-10  1.0000E-10  1.0000E-10  2.0000E-10  5.0000E-10   0.000    
  10    0.000      5.0000E-10  5.0000E-10  2.0000E-10  2.0000E-10  1.0000E-10  1.0000E-10  2.0000E-10  5.0000E-10  8.0000E-10
  11    0.000      1.0000E-10  1.0000E-10  1.0000E-10  1.0000E-10  1.0000E-10  1.0000E-10  2.0000E-10  5.0000E-10   0.000    
  12   1.0000E-10  1.0000E-10  1.0000E-10  1.0000E-10  1.0000E-10  1.0000E-10  1.0000E-10  1.0000E-10  2.0000E-10   0.000    
  13   1.0000E-10  1.0000E-10  2.0000E-10  2.0000E-10  2.0000E-10  2.0000E-10  2.0000E-10  1.0000E-10  1.0000E-10   0.000    
  14    0.000      2.0000E-10  5.0000E-10  5.0000E-10  5.0000E-10  5.0000E-10  5.0000E-10  2.0000E-10  1.0000E-10   0.000    
  15    0.000       0.000      8.0000E-10  8.0000E-10  8.0000E-10  8.0000E-10   0.000       0.000       0.000       0.000    

                  ET RATE =  5.000000E-10

 USING ET EXTINCTION DEPTH FROM PREVIOUS STRESS PERIOD. CURRENT PERIOD IS:      24

 USING EXTINCTION WATER CONTENT FROM PREVIOUS STRESS PERIOD. CURRENT PERIOD IS:      24

 USING AIR ENTRY PRESSURE FROM PREVIOUS STRESS PERIOD. CURRENT PERIOD IS:      24

 USING ROOT PRESSURE HEAD FROM PREVIOUS STRESS PERIOD. CURRENT PERIOD IS:      24

 USING ROOT ACTIVITY FROM PREVIOUS STRESS PERIOD. CURRENT PERIOD IS:      24

 PROCESSING AG STRESS PERIOD DATA

 READING AG STRESS PERIOD DATA

 READING IRRIGATION SEGMENT

 READING IRRIGATION WELL

 READING SUPPLEMENTAL WELL

 NO IRRPOND OR REUSING IRRPOND DATA FROM LAST STRESS PERIOD

 END PROCESSING AG STRESS PERIOD DATA OPTIONS
 
 SOLVING FOR HEAD 
                                                   Max.-Head-Change                         Max.-Flux-Residual
  Residual-Control   Outer-Iter.   Inner-Iter.     Column Row Layer    Maximum-Head-Change  Column Row Layer    Maximum-Flux-Residual          L2-NORM 
          0                 1           2             4    7     1       0.3627325871E-01       4    7    1         0.1910992737E+01      0.3885613658E+01
          0                 2           2             4    7     1      -0.3528425939E-02       4    7    1        -0.1911011069E+00      0.3885624506E+00
          0                 3           2             4    7     1       0.2402724617E-03       4    7    1         0.1337706592E-01      0.2719936895E-01
          0                 4           1             4    7     1      -0.9560667037E-05       4    7    1        -0.5471228321E-03      0.1112452510E-02

    ------------------------------------------------
       NWT REQUIRED            4 OUTER ITERATIONS 
       AND A TOTAL OF          7 INNER ITERATIONS.
    ------------------------------------------------

 NO OUTPUT CONTROL FOR STRESS PERIOD   24   TIME STEP    1
 
 SOLVING FOR HEAD 
                                                   Max.-Head-Change                         Max.-Flux-Residual
  Residual-Control   Outer-Iter.   Inner-Iter.     Column Row Layer    Maximum-Head-Change  Column Row Layer    Maximum-Flux-Residual          L2-NORM 
          0                 1           2             4    7     1       0.3577414681E-01       4    7    1         0.1884676202E+01      0.3835258780E+01
          0                 2           2             4    7     1      -0.3479875346E-02       4    7    1        -0.1884694116E+00      0.3835268164E+00
          0                 3           2             4    7     1       0.2369663525E-03       4    7    1         0.1319284755E-01      0.2684686111E-01
          0                 4           1             4    7     1      -0.9429114297E-05       4    7    1        -0.5395883054E-03      0.1098038428E-02

    ------------------------------------------------
       NWT REQUIRED            4 OUTER ITERATIONS 
       AND A TOTAL OF          7 INNER ITERATIONS.
    ------------------------------------------------

 NO OUTPUT CONTROL FOR STRESS PERIOD   24   TIME STEP    2
 
 SOLVING FOR HEAD 
                                                   Max.-Head-Change                         Max.-Flux-Residual
  Residual-Control   Outer-Iter.   Inner-Iter.     Column Row Layer    Maximum-Head-Change  Column Row Layer    Maximum-Flux-Residual          L2-NORM 
          0                 1           2             4    7     1       0.3528249243E-01       4    7    1         0.1858746930E+01      0.3785555465E+01
          0                 2           2             4    7     1      -0.3432050175E-02       4    7    1        -0.1858764430E+00      0.3785564543E+00
          0                 3           2             4    7     1       0.2337096418E-03       4    7    1         0.1301134007E-01      0.2649893707E-01
          0                 4           1             4    7     1      -0.9299526554E-05       4    7    1        -0.5321646377E-03      0.1083806774E-02

    ------------------------------------------------
       NWT REQUIRED            4 OUTER ITERATIONS 
       AND A TOTAL OF          7 INNER ITERATIONS.
    ------------------------------------------------

 NO OUTPUT CONTROL FOR STRESS PERIOD   24   TIME STEP    3
 
 SOLVING FOR HEAD 
                                                   Max.-Head-Change                         Max.-Flux-Residual
  Residual-Control   Outer-Iter.   Inner-Iter.     Column Row Layer    Maximum-Head-Change  Column Row Layer    Maximum-Flux-Residual          L2-NORM 
          0                 1           2             4    7     1       0.3479813934E-01       4    7    1         0.1833197026E+01      0.3736947372E+01
          0                 2           2             4    7     1      -0.3384935227E-02       4    7    1        -0.1833214117E+00      0.3736956271E+00
          0                 3           2             4    7     1       0.2305012938E-03       4    7    1         0.1283248819E-01      0.2615868348E-01
          0                 4           1             4    7     1      -0.9171862940E-05       4    7    1        -0.5248495527E-03      0.1069891536E-02

    ------------------------------------------------
       NWT REQUIRED            4 OUTER ITERATIONS 
       AND A TOTAL OF          7 INNER ITERATIONS.
    ------------------------------------------------

 NO OUTPUT CONTROL FOR STRESS PERIOD   24   TIME STEP    4
 
 SOLVING FOR HEAD 
                                                   Max.-Head-Change                         Max.-Flux-Residual
  Residual-Control   Outer-Iter.   Inner-Iter.     Column Row Layer    Maximum-Head-Change  Column Row Layer    Maximum-Flux-Residual          L2-NORM 
          0                 1           2             4    7     1       0.3432132379E-01       4    7    1         0.1808040250E+01      0.3689398646E+01
          0                 2           2             4    7     1      -0.3338553486E-02       4    7    1        -0.1808056940E+00      0.3689407175E+00
          0                 3           2             4    7     1       0.2273428755E-03       4    7    1         0.1265638826E-01      0.2582583883E-01
          0                 4           1             4    7     1      -0.9046187119E-05       4    7    1        -0.5176470809E-03      0.1056281234E-02

    ------------------------------------------------
       NWT REQUIRED            4 OUTER ITERATIONS 
       AND A TOTAL OF          7 INNER ITERATIONS.
    ------------------------------------------------

 NO OUTPUT CONTROL FOR STRESS PERIOD   24   TIME STEP    5
 
 SOLVING FOR HEAD 
                                                   Max.-Head-Change                         Max.-Flux-Residual
  Residual-Control   Outer-Iter.   Inner-Iter.     Column Row Layer    Maximum-Head-Change  Column Row Layer    Maximum-Flux-Residual          L2-NORM 
          0                 1           2             4    7     1       0.3385173670E-01       4    7    1         0.1783259704E+01      0.3642887163E+01
          0                 2           2             4    7     1      -0.3292874885E-02       4    7    1        -0.1783275996E+00      0.3642895393E+00
          0                 3           2             4    7     1       0.2242323375E-03       4    7    1         0.1248292195E-01      0.2550025572E-01
          0                 4           1             4    7     1      -0.8922415968E-05       4    7    1        -0.5105522987E-03      0.1042963254E-02

    ------------------------------------------------
       NWT REQUIRED            4 OUTER ITERATIONS 
       AND A TOTAL OF          7 INNER ITERATIONS.
    ------------------------------------------------

 NO OUTPUT CONTROL FOR STRESS PERIOD   24   TIME STEP    6
 
 SOLVING FOR HEAD 
                                                   Max.-Head-Change                         Max.-Flux-Residual
  Residual-Control   Outer-Iter.   Inner-Iter.     Column Row Layer    Maximum-Head-Change  Column Row Layer    Maximum-Flux-Residual          L2-NORM 
          0                 1           2             4    7     1       0.3338946557E-01       4    7    1         0.1758861224E+01      0.3597363595E+01
          0                 2           2             4    7     1      -0.3247907920E-02       4    7    1        -0.1758877126E+00      0.3597260764E+00
          0                 3           2             4    7     1       0.2211702597E-03       4    7    1         0.1231213015E-01      0.2518081673E-01
          0                 4           1             4    7     1      -0.8800572745E-05       4    7    1        -0.5035668983E-03      0.1029897093E-02

    ------------------------------------------------
       NWT REQUIRED            4 OUTER ITERATIONS 
       AND A TOTAL OF          7 INNER ITERATIONS.
    ------------------------------------------------

 NO OUTPUT CONTROL FOR STRESS PERIOD   24   TIME STEP    7
 
 SOLVING FOR HEAD 
                                                   Max.-Head-Change                         Max.-Flux-Residual
  Residual-Control   Outer-Iter.   Inner-Iter.     Column Row Layer    Maximum-Head-Change  Column Row Layer    Maximum-Flux-Residual          L2-NORM 
          0                 1           2             4    7     1       0.3293445658E-01       4    7    1         0.1734842060E+01      0.3552819364E+01
          0                 2           2             4    7     1      -0.3203647406E-02       4    7    1        -0.1734857578E+00      0.3552827184E+00
          0                 3           2             4    7     1       0.2181562883E-03       4    7    1         0.1214399361E-01      0.2486977302E-01
          0                 4           1             4    7     1      -0.8680644093E-05       4    7    1        -0.4966901013E-03      0.1017172119E-02

    ------------------------------------------------
       NWT REQUIRED            4 OUTER ITERATIONS 
       AND A TOTAL OF          7 INNER ITERATIONS.
    ------------------------------------------------

 NO OUTPUT CONTROL FOR STRESS PERIOD   24   TIME STEP    8
 
 SOLVING FOR HEAD 
                                                   Max.-Head-Change                         Max.-Flux-Residual
  Residual-Control   Outer-Iter.   Inner-Iter.     Column Row Layer    Maximum-Head-Change  Column Row Layer    Maximum-Flux-Residual          L2-NORM 
          0                 1           2             4    7     1       0.3248678276E-01       4    7    1         0.1711206711E+01      0.3509219991E+01
          0                 2           2             4    7     1      -0.3160100397E-02       4    7    1        -0.1711221852E+00      0.3509227069E+00
          0                 3           2             4    7     1       0.2151909036E-03       4    7    1         0.1197854381E-01      0.2456453327E-01
          0                 4           1             4    7     1      -0.8562648204E-05       4    7    1        -0.4899231808E-03      0.1004692790E-02

    ------------------------------------------------
       NWT REQUIRED            4 OUTER ITERATIONS 
       AND A TOTAL OF          7 INNER ITERATIONS.
    ------------------------------------------------

 NO OUTPUT CONTROL FOR STRESS PERIOD   24   TIME STEP    9
 
 SOLVING FOR HEAD 
                                                   Max.-Head-Change                         Max.-Flux-Residual
  Residual-Control   Outer-Iter.   Inner-Iter.     Column Row Layer    Maximum-Head-Change  Column Row Layer    Maximum-Flux-Residual          L2-NORM 
          0                 1           2             4    7     1       0.3204623775E-01       4    7    1         0.1687944384E+01      0.3466531186E+01
          0                 2           2             4    7     1      -0.3117246837E-02       4    7    1        -0.1687959156E+00      0.3466538447E+00
          0                 3           2             4    7     1       0.2122727403E-03       4    7    1         0.1181570521E-01      0.2426575292E-01
          0                 4           1             4    7     1      -0.8446532003E-05       4    7    1        -0.4832630841E-03      0.9924710516E-03

    ------------------------------------------------
       NWT REQUIRED            4 OUTER ITERATIONS 
       AND A TOTAL OF          7 INNER ITERATIONS.
    ------------------------------------------------

 NO OUTPUT CONTROL FOR STRESS PERIOD   24   TIME STEP   10
 
 SOLVING FOR HEAD 
                                                   Max.-Head-Change                         Max.-Flux-Residual
  Residual-Control   Outer-Iter.   Inner-Iter.     Column Row Layer    Maximum-Head-Change  Column Row Layer    Maximum-Flux-Residual          L2-NORM 
          0                 1           2             4    7     1       0.3161275087E-01       4    7    1         0.1665051671E+01      0.3424718724E+01
          0                 2           2             4    7     1      -0.3075079851E-02       4    7    1        -0.1665066079E+00      0.3424725644E+00
          0                 3           2             4    7     1       0.2094013303E-03       4    7    1         0.1165545396E-01      0.2397306054E-01
          0                 4           1             4    7     1      -0.8332275918E-05       4    7    1        -0.4767087953E-03      0.9804984969E-03

    ------------------------------------------------
       NWT REQUIRED            4 OUTER ITERATIONS 
       AND A TOTAL OF          7 INNER ITERATIONS.
    ------------------------------------------------

 NO OUTPUT CONTROL FOR STRESS PERIOD   24   TIME STEP   11
 
 SOLVING FOR HEAD 
                                                   Max.-Head-Change                         Max.-Flux-Residual
  Residual-Control   Outer-Iter.   Inner-Iter.     Column Row Layer    Maximum-Head-Change  Column Row Layer    Maximum-Flux-Residual          L2-NORM 
          0                 1           2             4    7     1       0.3118637749E-01       4    7    1         0.1642532197E+01      0.3383762197E+01
          0                 2           2             4    7     1      -0.3033604826E-02       4    7    1        -0.1642546250E+00      0.3383768810E+00
          0                 3           2             4    7     1       0.2065770400E-03       4    7    1         0.1149781542E-01      0.2368636017E-01
          0                 4           1             4    7     1      -0.8219894802E-05       4    7    1        -0.4702613730E-03      0.9687724994E-03

    ------------------------------------------------
       NWT REQUIRED            4 OUTER ITERATIONS 
       AND A TOTAL OF          7 INNER ITERATIONS.
    ------------------------------------------------

 NO OUTPUT CONTROL FOR STRESS PERIOD   24   TIME STEP   12
 
 SOLVING FOR HEAD 
                                                   Max.-Head-Change                         Max.-Flux-Residual
  Residual-Control   Outer-Iter.   Inner-Iter.     Column Row Layer    Maximum-Head-Change  Column Row Layer    Maximum-Flux-Residual          L2-NORM 
          0                 1           2             4    7     1       0.3076703168E-01       4    7    1         0.1620381544E+01      0.3343639245E+01
          0                 2           2             4    7     1      -0.2992813402E-02       4    7    1        -0.1620395249E+00      0.3343645604E+00
          0                 3           2             4    7     1       0.2037993001E-03       4    7    1         0.1134275867E-01      0.2340549745E-01
          0                 4           1             4    7     1      -0.8109365628E-05       4    7    1        -0.4639195251E-03      0.9572850408E-03

    ------------------------------------------------
       NWT REQUIRED            4 OUTER ITERATIONS 
       AND A TOTAL OF          7 INNER ITERATIONS.
    ------------------------------------------------

 NO OUTPUT CONTROL FOR STRESS PERIOD   24   TIME STEP   13
 
 SOLVING FOR HEAD 
                                                   Max.-Head-Change                         Max.-Flux-Residual
  Residual-Control   Outer-Iter.   Inner-Iter.     Column Row Layer    Maximum-Head-Change  Column Row Layer    Maximum-Flux-Residual          L2-NORM 
          0                 1           2             4    7     1       0.3035449464E-01       4    7    1         0.1598587962E+01      0.3304323045E+01
          0                 2           2             4    7     1      -0.2952684297E-02       4    7    1        -0.1598601326E+00      0.3304329116E+00
          0                 3           2             4    7     1       0.2010666617E-03       4    7    1         0.1119020147E-01      0.2313028513E-01
          0                 4           1             4    7     1      -0.8000631409E-05       4    7    1        -0.4576799383E-03      0.9460330132E-03

    ------------------------------------------------
       NWT REQUIRED            4 OUTER ITERATIONS 
       AND A TOTAL OF          7 INNER ITERATIONS.
    ------------------------------------------------

 NO OUTPUT CONTROL FOR STRESS PERIOD   24   TIME STEP   14
 
 SOLVING FOR HEAD 
                                                   Max.-Head-Change                         Max.-Flux-Residual
  Residual-Control   Outer-Iter.   Inner-Iter.     Column Row Layer    Maximum-Head-Change  Column Row Layer    Maximum-Flux-Residual          L2-NORM 
          0                 1           2             4    7     1       0.2994880928E-01       4    7    1         0.1577154694E+01      0.3265786106E+01
          0                 2           2             4    7     1      -0.2913221685E-02       4    7    1        -0.1577167725E+00      0.3265791922E+00
          0                 3           2             4    7     1       0.1983794089E-03       4    7    1         0.1104016652E-01      0.2286052857E-01
          0                 4           1             4    7     1      -0.7893703081E-05       4    7    1        -0.4515434887E-03      0.9349997885E-03

    ------------------------------------------------
       NWT REQUIRED            4 OUTER ITERATIONS 
       AND A TOTAL OF          7 INNER ITERATIONS.
    ------------------------------------------------

 NO OUTPUT CONTROL FOR STRESS PERIOD   24   TIME STEP   15
 
 SOLVING FOR HEAD 
                                                   Max.-Head-Change                         Max.-Flux-Residual
  Residual-Control   Outer-Iter.   Inner-Iter.     Column Row Layer    Maximum-Head-Change  Column Row Layer    Maximum-Flux-Residual          L2-NORM 
          0                 1           2             4    7     1       0.2954988449E-01       4    7    1         0.1556076672E+01      0.3228017171E+01
          0                 2           2             4    7     1      -0.2874416702E-02       4    7    1        -0.1556089376E+00      0.3228022659E+00
          0                 3           2             4    7     1       0.1957369381E-03       4    7    1         0.1089261831E-01      0.2259615062E-01
          0                 4           1             4    7     1      -0.7788556928E-05       4    7    1        -0.4455087658E-03      0.9241854676E-03

    ------------------------------------------------
       NWT REQUIRED            4 OUTER ITERATIONS 
       AND A TOTAL OF          7 INNER ITERATIONS.
    ------------------------------------------------

 NO OUTPUT CONTROL FOR STRESS PERIOD   24   TIME STEP   16
 
 SOLVING FOR HEAD 
                                                   Max.-Head-Change                         Max.-Flux-Residual
  Residual-Control   Outer-Iter.   Inner-Iter.     Column Row Layer    Maximum-Head-Change  Column Row Layer    Maximum-Flux-Residual          L2-NORM 
          0                 1           2             4    7     1       0.2915762152E-01       4    7    1         0.1535349171E+01      0.3190982196E+01
          0                 2           2             4    7     1      -0.2836259743E-02       4    7    1        -0.1535361557E+00      0.3190987482E+00
          0                 3           2             4    7     1       0.1931385955E-03       4    7    1         0.1074752383E-01      0.2233688954E-01
          0                 4           1             4    7     1      -0.7685166472E-05       4    7    1        -0.4395743954E-03      0.9135712057E-03

    ------------------------------------------------
       NWT REQUIRED            4 OUTER ITERATIONS 
       AND A TOTAL OF          7 INNER ITERATIONS.
    ------------------------------------------------

 NO OUTPUT CONTROL FOR STRESS PERIOD   24   TIME STEP   17
 
 SOLVING FOR HEAD 
                                                   Max.-Head-Change                         Max.-Flux-Residual
  Residual-Control   Outer-Iter.   Inner-Iter.     Column Row Layer    Maximum-Head-Change  Column Row Layer    Maximum-Flux-Residual          L2-NORM 
          0                 1           2             4    7     1       0.2877192657E-01       4    7    1         0.1514967071E+01      0.3154674094E+01
          0                 2           2             4    7     1      -0.2798741684E-02       4    7    1        -0.1514979146E+00      0.3154679154E+00
          0                 3           2             4    7     1       0.1905837591E-03       4    7    1         0.1060484718E-01      0.2208273441E-01
          0                 4           1             4    7     1      -0.7583507189E-05       4    7    1        -0.4337389103E-03      0.9031857367E-03

    ------------------------------------------------
       NWT REQUIRED            4 OUTER ITERATIONS 
       AND A TOTAL OF          7 INNER ITERATIONS.
    ------------------------------------------------

 NO OUTPUT CONTROL FOR STRESS PERIOD   24   TIME STEP   18
 
 SOLVING FOR HEAD 
                                                   Max.-Head-Change                         Max.-Flux-Residual
  Residual-Control   Outer-Iter.   Inner-Iter.     Column Row Layer    Maximum-Head-Change  Column Row Layer    Maximum-Flux-Residual          L2-NORM 
          0                 1           2             4    7     1       0.2839283074E-01       4    7    1         0.1494932806E+01      0.3119065456E+01
          0                 2           2             4    7     1      -0.2761865551E-02       4    7    1        -0.1494944577E+00      0.3119070139E+00
          0                 3           2             4    7     1       0.1880726352E-03       4    7    1         0.1046460541E-01      0.2183346993E-01
          0                 4           1             4    7     1      -0.7483587024E-05       4    7    1        -0.4280030116E-03      0.8929895785E-03

    ------------------------------------------------
       NWT REQUIRED            4 OUTER ITERATIONS 
       AND A TOTAL OF          7 INNER ITERATIONS.
    ------------------------------------------------

 NO OUTPUT CONTROL FOR STRESS PERIOD   24   TIME STEP   19
 
 SOLVING FOR HEAD 
                                                   Max.-Head-Change                         Max.-Flux-Residual
  Residual-Control   Outer-Iter.   Inner-Iter.     Column Row Layer    Maximum-Head-Change  Column Row Layer    Maximum-Flux-Residual          L2-NORM 
          0                 1           2             4    7     1       0.2802009257E-01       4    7    1         0.1475233397E+01      0.3084135840E+01
          0                 2           2             4    7     1      -0.2725607855E-02       4    7    1        -0.1475244871E+00      0.3084140264E+00
          0                 3           2             4    7     1       0.1856036251E-03       4    7    1         0.1032670771E-01      0.2158895849E-01
          0                 4           1             4    7     1      -0.7385342771E-05       4    7    1        -0.4223629830E-03      0.8829962037E-03

    ------------------------------------------------
       NWT REQUIRED            4 OUTER ITERATIONS 
       AND A TOTAL OF          7 INNER ITERATIONS.
    ------------------------------------------------

 NO OUTPUT CONTROL FOR STRESS PERIOD   24   TIME STEP   20
 
 SOLVING FOR HEAD 
                                                   Max.-Head-Change                         Max.-Flux-Residual
  Residual-Control   Outer-Iter.   Inner-Iter.     Column Row Layer    Maximum-Head-Change  Column Row Layer    Maximum-Flux-Residual          L2-NORM 
          0                 1           2             4    7     1       0.2765361246E-01       4    7    1         0.1455863620E+01      0.3049874206E+01
          0                 2           2             4    7     1      -0.2689958908E-02       4    7    1        -0.1455874804E+00      0.3049878335E+00
          0                 3           2             4    7     1       0.1831760681E-03       4    7    1         0.1019111745E-01      0.2134911694E-01
          0                 4           1             4    7     1      -0.7288747951E-05       4    7    1        -0.4168173330E-03      0.8731789701E-03

    ------------------------------------------------
       NWT REQUIRED            4 OUTER ITERATIONS 
       AND A TOTAL OF          7 INNER ITERATIONS.
    ------------------------------------------------

 NO OUTPUT CONTROL FOR STRESS PERIOD   24   TIME STEP   21
 
 SOLVING FOR HEAD 
                                                   Max.-Head-Change                         Max.-Flux-Residual
  Residual-Control   Outer-Iter.   Inner-Iter.     Column Row Layer    Maximum-Head-Change  Column Row Layer    Maximum-Flux-Residual          L2-NORM 
          0                 1           2             4    7     1       0.2729342583E-01       4    7    1         0.1436825606E+01      0.3016260290E+01
          0                 2           2             4    7     1      -0.2654922156E-02       4    7    1        -0.1436836509E+00      0.3016264236E+00
          0                 3           2             4    7     1       0.1807901993E-03       4    7    1         0.1005784958E-01      0.2111383128E-01
          0                 4           1             4    7     1      -0.7193812235E-05       4    7    1        -0.4113666782E-03      0.8635646915E-03

    ------------------------------------------------
       NWT REQUIRED            4 OUTER ITERATIONS 
       AND A TOTAL OF          7 INNER ITERATIONS.
    ------------------------------------------------

 NO OUTPUT CONTROL FOR STRESS PERIOD   24   TIME STEP   22
 
 SOLVING FOR HEAD 
                                                   Max.-Head-Change                         Max.-Flux-Residual
  Residual-Control   Outer-Iter.   Inner-Iter.     Column Row Layer    Maximum-Head-Change  Column Row Layer    Maximum-Flux-Residual          L2-NORM 
          0                 1           2             4    7     1       0.2693942261E-01       4    7    1         0.1418113899E+01      0.2983275138E+01
          0                 2           2             4    7     1      -0.2620486890E-02       4    7    1        -0.1418124525E+00      0.2983278825E+00
          0                 3           2             4    7     1       0.1784452891E-03       4    7    1         0.9926865900E-02      0.2088292423E-01
          0                 4           1             4    7     1      -0.7100505920E-05       4    7    1        -0.4060094318E-03      0.8541118446E-03

    ------------------------------------------------
       NWT REQUIRED            4 OUTER ITERATIONS 
       AND A TOTAL OF          7 INNER ITERATIONS.
    ------------------------------------------------

 NO OUTPUT CONTROL FOR STRESS PERIOD   24   TIME STEP   23
 
 SOLVING FOR HEAD 
                                                   Max.-Head-Change                         Max.-Flux-Residual
  Residual-Control   Outer-Iter.   Inner-Iter.     Column Row Layer    Maximum-Head-Change  Column Row Layer    Maximum-Flux-Residual          L2-NORM 
          0                 1           2             4    7     1       0.2659135857E-01       4    7    1         0.1399715492E+01      0.2950896688E+01
          0                 2           2             4    7     1      -0.2586629356E-02       4    7    1        -0.1399725850E+00      0.2950900160E+00
          0                 3           2             4    7     1       0.1761397207E-03       4    7    1         0.9798075391E-02      0.2065627934E-01
          0                 4           1             4    7     1      -0.7008764995E-05       4    7    1        -0.4007418861E-03      0.8448444719E-03

    ------------------------------------------------
       NWT REQUIRED            4 OUTER ITERATIONS 
       AND A TOTAL OF          7 INNER ITERATIONS.
    ------------------------------------------------

 NO OUTPUT CONTROL FOR STRESS PERIOD   24   TIME STEP   24
 
 SOLVING FOR HEAD 
                                                   Max.-Head-Change                         Max.-Flux-Residual
  Residual-Control   Outer-Iter.   Inner-Iter.     Column Row Layer    Maximum-Head-Change  Column Row Layer    Maximum-Flux-Residual          L2-NORM 
          0                 1           2             4    7     1       0.2624926952E-01       4    7    1         0.1381632317E+01      0.2919118679E+01
          0                 2           2             4    7     1      -0.2553353035E-02       4    7    1        -0.1381642414E+00      0.2919121861E+00
          0                 3           2             4    7     1       0.1738737303E-03       4    7    1         0.9671491544E-02      0.2043382903E-01
          0                 4           1             4    7     1      -0.6918598900E-05       4    7    1        -0.3955645859E-03      0.8357451586E-03

    ------------------------------------------------
       NWT REQUIRED            4 OUTER ITERATIONS 
       AND A TOTAL OF          7 INNER ITERATIONS.
    ------------------------------------------------

 NO OUTPUT CONTROL FOR STRESS PERIOD   24   TIME STEP   25
 
 SOLVING FOR HEAD 
                                                   Max.-Head-Change                         Max.-Flux-Residual
  Residual-Control   Outer-Iter.   Inner-Iter.     Column Row Layer    Maximum-Head-Change  Column Row Layer    Maximum-Flux-Residual          L2-NORM 
          0                 1           2             4    7     1       0.2591304692E-01       4    7    1         0.1363858935E+01      0.2887924684E+01
          0                 2           2             4    7     1      -0.2520647001E-02       4    7    1        -0.1363868776E+00      0.2887726887E+00
          0                 3           2             4    7     1       0.1716465743E-03       4    7    1         0.9547076249E-02      0.2021405769E-01
          0                 4           1             4    7     1      -0.6829978394E-05       4    7    1        -0.3904760049E-03      0.8267543872E-03

    ------------------------------------------------
       NWT REQUIRED            4 OUTER ITERATIONS 
       AND A TOTAL OF          7 INNER ITERATIONS.
    ------------------------------------------------

 NO OUTPUT CONTROL FOR STRESS PERIOD   24   TIME STEP   26
 
 SOLVING FOR HEAD 
                                                   Max.-Head-Change                         Max.-Flux-Residual
  Residual-Control   Outer-Iter.   Inner-Iter.     Column Row Layer    Maximum-Head-Change  Column Row Layer    Maximum-Flux-Residual          L2-NORM 
          0                 1           2             4    7     1       0.2558259185E-01       4    7    1         0.1346389737E+01      0.2857310107E+01
          0                 2           2             4    7     1      -0.2488502737E-02       4    7    1        -0.1346399329E+00      0.2857313222E+00
          0                 3           2             4    7     1       0.1694576724E-03       4    7    1         0.9424790292E-02      0.2000115761E-01
          0                 4           1             4    7     1      -0.6742880104E-05       4    7    1        -0.3854744998E-03      0.8180448318E-03

    ------------------------------------------------
       NWT REQUIRED            4 OUTER ITERATIONS 
       AND A TOTAL OF          7 INNER ITERATIONS.
    ------------------------------------------------

 NO OUTPUT CONTROL FOR STRESS PERIOD   24   TIME STEP   27
 
 SOLVING FOR HEAD 
                                                   Max.-Head-Change                         Max.-Flux-Residual
  Residual-Control   Outer-Iter.   Inner-Iter.     Column Row Layer    Maximum-Head-Change  Column Row Layer    Maximum-Flux-Residual          L2-NORM 
          0                 1           2             4    7     1       0.2525779625E-01       4    7    1         0.1329219535E+01      0.2827340088E+01
          0                 2           2             4    7     1      -0.2456908625E-02       4    7    1        -0.1329228885E+00      0.2827342912E+00
          0                 3           2             4    7     1       0.1673062337E-03       4    7    1         0.9304597337E-02      0.1979137310E-01
          0                 4           1             4    7     1      -0.6657272372E-05       4    7    1        -0.3805586027E-03      0.8094731194E-03

    ------------------------------------------------
       NWT REQUIRED            4 OUTER ITERATIONS 
       AND A TOTAL OF          7 INNER ITERATIONS.
    ------------------------------------------------

 NO OUTPUT CONTROL FOR STRESS PERIOD   24   TIME STEP   28
 
 SOLVING FOR HEAD 
                                                   Max.-Head-Change                         Max.-Flux-Residual
  Residual-Control   Outer-Iter.   Inner-Iter.     Column Row Layer    Maximum-Head-Change  Column Row Layer    Maximum-Flux-Residual          L2-NORM 
          0                 1           2             4    7     1       0.2493856318E-01       4    7    1         0.1312342786E+01      0.2797906781E+01
          0                 2           2             4    7     1      -0.2425855606E-02       4    7    1        -0.1312351900E+00      0.2797909409E+00
          0                 3           2             4    7     1       0.1651916421E-03       4    7    1         0.9186458652E-02      0.1958533221E-01
          0                 4           1             4    7     1      -0.6573130790E-05       4    7    1        -0.3757267225E-03      0.8010371808E-03

    ------------------------------------------------
       NWT REQUIRED            4 OUTER ITERATIONS 
       AND A TOTAL OF          7 INNER ITERATIONS.
    ------------------------------------------------

 NO OUTPUT CONTROL FOR STRESS PERIOD   24   TIME STEP   29
 
 SOLVING FOR HEAD 
                                                   Max.-Head-Change                         Max.-Flux-Residual
  Residual-Control   Outer-Iter.   Inner-Iter.     Column Row Layer    Maximum-Head-Change  Column Row Layer    Maximum-Flux-Residual          L2-NORM 
          0                 1           2             4    7     1       0.2462491753E-01       4    7    1         0.1295761743E+01      0.2768992238E+01
          0                 2           2             4    7     1      -0.2395346099E-02       4    7    1        -0.1295770627E+00      0.2768994550E+00
          0                 3           2             4    7     1       0.1631140606E-03       4    7    1         0.9070389909E-02      0.1938292414E-01
          0                 4           1             4    7     1      -0.6490461805E-05       4    7    1        -0.3709795110E-03      0.7927553525E-03

    ------------------------------------------------
       NWT REQUIRED            4 OUTER ITERATIONS 
       AND A TOTAL OF          7 INNER ITERATIONS.
    ------------------------------------------------

 NO OUTPUT CONTROL FOR STRESS PERIOD   24   TIME STEP   30



 STREAM LISTING     PERIOD     24   STEP       30

 LAYER ROW COL. STREAM  RCH.  FLOW INTO     FLOW TO   FLOW OUT OF   OVRLND.     DIRECT     STREAM       STREAM     STREAM     STREAM   STREAMBED  STREAMBED
                SEG.NO.  NO.  STRM. RCH.    AQUIFER    STRM. RCH.    RUNOFF     PRECIP       ET          HEAD       DEPTH      WIDTH   CONDCTNC.   GRADIENT

   1    1    1     1     1    7.8751E+00  1.2805E-01   7.7471E+00  0.000E+00  0.000E+00  0.000E+00  1.09388E+03  8.295E-01  7.430E+00  3.344E-02  1.276E+00
   1    2    2     1     2    7.7471E+00  1.9663E-01   7.5504E+00  0.000E+00  0.000E+00  0.000E+00  1.08888E+03  8.238E-01  7.346E+00  5.142E-02  1.275E+00
   1    3    3     1     3    7.5504E+00  1.6607E-01   7.3844E+00  0.000E+00  0.000E+00  0.000E+00  1.08324E+03  8.173E-01  7.251E+00  4.350E-02  1.272E+00
   1    3    4     1     4    7.3844E+00  1.5159E-01   7.2328E+00  0.000E+00  0.000E+00  0.000E+00  1.07822E+03  8.115E-01  7.166E+00  3.977E-02  1.270E+00
   1    4    5     2     1    5.2328E+00  2.7028E-01   4.9625E+00  0.000E+00  0.000E+00  0.000E+00  1.07240E+03  4.651E-01  1.200E+01  7.800E-02  1.155E+00
   1    5    6     2     2    4.9625E+00  2.0712E-01   4.7554E+00  0.000E+00  0.000E+00  0.000E+00  1.06696E+03  4.519E-01  1.200E+01  6.000E-02  1.151E+00
   1    6    6     2     3    4.7554E+00  2.0642E-01   4.5490E+00  0.000E+00  0.000E+00  0.000E+00  1.06223E+03  4.403E-01  1.200E+01  6.000E-02  1.147E+00
   1    7    6     2     4    4.5490E+00  2.0571E-01   4.3433E+00  0.000E+00  0.000E+00  0.000E+00  1.05750E+03  4.285E-01  1.200E+01  6.000E-02  1.143E+00
   1    8    6     2     5    4.3433E+00  2.0499E-01   4.1383E+00  0.000E+00  0.000E+00  0.000E+00  1.05278E+03  4.165E-01  1.200E+01  6.000E-02  1.139E+00
   1    3    5     3     1    2.0000E+00  2.8252E-01   1.7175E+00  0.000E+00  0.000E+00  0.000E+00  1.07555E+03  1.909E+00  9.636E+00  7.227E-02  1.955E+00
   1    3    6     3     2    1.7175E+00  2.4905E-01   1.4684E+00  0.000E+00  0.000E+00  0.000E+00  1.07264E+03  1.727E+00  8.909E+00  6.682E-02  1.864E+00
   1    3    7     3     3    1.4684E+00  1.9718E-01   1.2712E+00  0.000E+00  0.000E+00  0.000E+00  1.06987E+03  1.555E+00  8.218E+00  5.547E-02  1.777E+00
   1    4    8     3     4    1.2712E+00  2.2567E-01   1.0456E+00  0.000E+00  0.000E+00  0.000E+00  1.06682E+03  1.364E+00  7.455E+00  6.709E-02  1.682E+00
   1    5    8     3     5    1.0456E+00  1.5790E-01   8.8768E-01  0.000E+00  0.000E+00  0.000E+00  1.06362E+03  1.164E+00  6.655E+00  4.991E-02  1.582E+00
   1    6    8     3     6    8.8768E-01  5.5980E-02   8.3170E-01  0.000E+00  0.000E+00  0.000E+00  1.06158E+03  1.036E+00  6.145E+00  1.844E-02  1.518E+00
   1    5   10     4     1    1.0000E+01  9.0919E-02   9.9091E+00  0.000E+00  0.000E+00  0.000E+00  1.07836E+03  6.368E-01  1.000E+01  2.500E-02  1.212E+00
   1    5    9     4     2    9.9091E+00  1.8158E-01   9.7275E+00  0.000E+00  0.000E+00  0.000E+00  1.07154E+03  6.315E-01  1.000E+01  5.000E-02  1.211E+00
   1    6    8     4     3    9.7275E+00  1.2689E-01   9.6006E+00  0.000E+00  0.000E+00  0.000E+00  1.06381E+03  6.256E-01  1.000E+01  3.500E-02  1.209E+00
   1    6    8     5     1    1.0432E+01  2.2686E-01   1.0205E+01  0.000E+00  0.000E+00  0.000E+00  1.05868E+03  6.790E-01  1.542E+01  6.166E-02  1.226E+00
   1    7    7     5     2    1.0205E+01  2.7894E-01   9.9265E+00  0.000E+00  0.000E+00  0.000E+00  1.05417E+03  6.732E-01  1.519E+01  7.594E-02  1.224E+00
   1    8    7     5     3    9.9265E+00  1.9221E-01   9.7343E+00  0.000E+00  0.000E+00  0.000E+00  1.04992E+03  6.676E-01  1.497E+01  5.241E-02  1.223E+00
   1    8    6     5     4    9.7343E+00  1.3577E-01   9.5985E+00  0.000E+00  0.000E+00  0.000E+00  1.04691E+03  6.637E-01  1.482E+01  3.706E-02  1.221E+00
   1    9    6     6     1    1.3737E+01  2.3089E-01   1.3506E+01  0.000E+00  0.000E+00  0.000E+00  1.04358E+03  8.482E-01  1.200E+01  6.000E-02  1.283E+00
   1   10    7     6     2    1.3506E+01  2.3037E-01   1.3276E+01  0.000E+00  0.000E+00  0.000E+00  1.03902E+03  8.396E-01  1.200E+01  6.000E-02  1.280E+00
   1   11    7     6     3    1.3276E+01  2.2985E-01   1.3046E+01  0.000E+00  0.000E+00  0.000E+00  1.03447E+03  8.309E-01  1.200E+01  6.000E-02  1.277E+00
   1   12    7     6     4    1.3046E+01  2.2933E-01   1.2816E+01  0.000E+00  0.000E+00  0.000E+00  1.02991E+03  8.221E-01  1.200E+01  6.000E-02  1.274E+00
   1   13    7     6     5    1.2816E+01  2.1937E-03   1.2814E+01  0.000E+00  0.000E+00  0.000E+00  1.02673E+03  8.177E-01  1.200E+01  2.400E-02  3.047E-02
   1   14    9     7     1    1.5000E+02  1.3794E+00   1.4862E+02  0.000E+00  0.000E+00  0.000E+00  1.03987E+03  2.288E+00  5.529E+01  5.593E-01  8.221E-01
   1   13    8     7     2    1.4862E+02  1.9744E+00   1.4665E+02  0.000E+00  0.000E+00  0.000E+00  1.03478E+03  2.279E+00  5.525E+01  6.147E-01  1.071E+00
   1   13    7     7     3    1.4665E+02  1.7046E+00   1.4494E+02  0.000E+00  0.000E+00  0.000E+00  1.02969E+03  2.269E+00  5.521E+01  5.584E-01  1.018E+00
   1   13    6     8     1    1.5776E+02  1.0852E+00   1.5667E+02  0.000E+00  0.000E+00  0.000E+00  1.02474E+03  2.867E+00  4.157E+01  4.236E-01  8.540E-01
   1   13    5     8     2    1.5667E+02  3.3905E-01   1.5633E+02  0.000E+00  0.000E+00  0.000E+00  1.01849E+03  2.862E+00  4.150E+01  4.229E-01  2.672E-01
   1   13    4     8     3    1.5633E+02 -1.8617E+00   1.5819E+02  0.000E+00  0.000E+00  0.000E+00  1.01224E+03  2.867E+00  4.157E+01  4.237E+00 -1.465E-01
   1   13    3     8     4    1.5819E+02 -3.3658E+00   1.6156E+02  0.000E+00  0.000E+00  0.000E+00  1.00601E+03  2.885E+00  4.183E+01  4.263E+00 -2.632E-01
   1   13    2     8     5    1.6156E+02 -2.5092E+00   1.6407E+02  0.000E+00  0.000E+00  0.000E+00  9.99780E+02  2.905E+00  4.212E+01  4.292E+00 -1.949E-01
   1   13    1     8     6    1.6407E+02 -1.9608E+00   1.6603E+02  0.000E+00  0.000E+00  0.000E+00  9.94795E+02  2.920E+00  4.234E+01  2.588E+00 -2.525E-01
   1    8    6     9     1    0.0000E+00  0.0000E+00   0.0000E+00  0.000E+00  0.000E+00  0.000E+00  1.07875E+03  0.000E+00  4.000E+00  0.000E+00  1.000E+00
   1    8    5     9     2    0.0000E+00  0.0000E+00   0.0000E+00  0.000E+00  0.000E+00  0.000E+00  1.07825E+03  0.000E+00  4.000E+00  0.000E+00  1.000E+00





UNSATURATED ZONE PACKAGE VOLUMETRIC BUDGET FOR  TIME STEP    30 STRESS PERIOD   24
  ------------------------------------------------------------------------------



     CUMULATIVE VOLUMES      L**3       RATES FOR THIS TIME STEP      L**3/T
     ------------------                 ------------------------

           IN:                                      IN:
           ---                                      ---
        INFILTRATION =  1092835456.2755          INFILTRATION =           0.8475

          OUT:                                     OUT:
          ----                                     ----
              UZF ET =   858288220.9275                UZF ET =           0.7500
        UZF RECHARGE =       73224.0000          UZF RECHARGE =       0.0000E+00

            IN - OUT =   234474011.3480              IN - OUT =       9.7500E-02

          STORAGE:                                 STORAGE:
          --------                                 --------
      STORAGE CHANGE =   234474219.1409        STORAGE CHANGE =       9.7500E-02

 PERCENT DISCREPANCY IS DIFFERENCE BETWEEN IN-OUT MINUS CHANGE IN STORAGE
 DIVIDED BY THE AVERAGE OF IN AND OUT TIMES 100

 PERCENT DISCREPANCY =          -0.00     PERCENT DISCREPANCY =           0.00






1
  VOLUMETRIC BUDGET FOR AGRICULTURAL FIELDS AT  END OF TIME STEP   30, STRESS PERIOD  24
  ------------------------------------------------------------------------------

     CUMULATIVE VOLUMES      L**3       RATES FOR THIS TIME STEP      L**3/T
     ------------------                 ------------------------

           IN:                                      IN:
           ---                                      ---
               AG WELLS  =   666412096.0000                 AG WELLS  =           0.0000
      DIVERSION SEGMENTS =   375163232.0000        DIVERSION SEGMENTS =           0.0000
       IRRIGATION PONDS  =           0.0000         IRRIGATION PONDS  =           0.0000
           GW IRRIGATION =           0.0000             GW IRRIGATION =           0.0000
           SW IRRIGATION =           0.0000             SW IRRIGATION =           0.0000
        SYSTEM LOSSES GW =           0.0000          SYSTEM LOSSES GW =           0.0000
        SYSTEM LOSSES SW =           0.0000          SYSTEM LOSSES SW =           0.0000

                TOTAL IN =  1041575296.0000                  TOTAL IN =           0.0000

          OUT:                                     OUT:
          ----                                     ----
               AG WELLS  =           0.0000                 AG WELLS  =           0.0000
      DIVERSION SEGMENTS =           0.0000        DIVERSION SEGMENTS =           0.0000
       IRRIGATION PONDS  =           0.0000         IRRIGATION PONDS  =           0.0000
           GW IRRIGATION =   666412096.0000             GW IRRIGATION =           0.0000
           SW IRRIGATION =   375170880.0000             SW IRRIGATION =           0.0000
        SYSTEM LOSSES GW =           0.0000          SYSTEM LOSSES GW =           0.0000
        SYSTEM LOSSES SW =           0.0000          SYSTEM LOSSES SW =           0.0000

               TOTAL OUT =  1041582976.0000                 TOTAL OUT =           0.0000

                IN - OUT =       -7680.0000                  IN - OUT =           0.0000

     PERCENT DISCREPANCY =          -0.00         PERCENT DISCREPANCY =           0.00



1
  VOLUMETRIC BUDGET FOR ENTIRE MODEL AT END OF TIME STEP   30, STRESS PERIOD  24
  ------------------------------------------------------------------------------

     CUMULATIVE VOLUMES      L**3       RATES FOR THIS TIME STEP      L**3/T
     ------------------                 ------------------------

           IN:                                      IN:
           ---                                      ---
             STORAGE     =  1006887360.0000               STORAGE     =           6.6564
       CONSTANT HEAD     =           0.0000         CONSTANT HEAD     =           0.0000
     HEAD DEP BOUNDS     =    17453400.0000       HEAD DEP BOUNDS     =           0.2887
      STREAM LEAKAGE     =   713804992.0000        STREAM LEAKAGE     =          11.5437
        UZF RECHARGE     =       73223.9531          UZF RECHARGE     =           0.0000
               GW ET     =           0.0000                 GW ET     =           0.0000
     SURFACE LEAKAGE     =           0.0000       SURFACE LEAKAGE     =           0.0000
           AG WELLS      =           0.0000             AG WELLS      =           0.0000

                TOTAL IN =  1738219008.0000                  TOTAL IN =          18.4888

          OUT:                                     OUT:
          ----                                     ----
             STORAGE     =   441835328.0000               STORAGE     =           8.5043
       CONSTANT HEAD     =           0.0000         CONSTANT HEAD     =           0.0000
     HEAD DEP BOUNDS     =    17436122.0000       HEAD DEP BOUNDS     =           0.2870
      STREAM LEAKAGE     =   612538816.0000        STREAM LEAKAGE     =           9.6976
        UZF RECHARGE     =           0.0000          UZF RECHARGE     =           0.0000
               GW ET     =           0.0000                 GW ET     =           0.0000
     SURFACE LEAKAGE     =           0.0000       SURFACE LEAKAGE     =           0.0000
           AG WELLS      =   666412096.0000             AG WELLS      =           0.0000

               TOTAL OUT =  1738222336.0000                 TOTAL OUT =          18.4888

                IN - OUT =       -3328.0000                  IN - OUT =       9.5367E-06

     PERCENT DISCREPANCY =          -0.00         PERCENT DISCREPANCY =           0.00






         TIME SUMMARY AT END OF TIME STEP   30 IN STRESS PERIOD   24
                    SECONDS     MINUTES      HOURS       DAYS        YEARS
                    -----------------------------------------------------------
   TIME STEP LENGTH  87667.      1461.1      24.352      1.0147     2.77799E-03
 STRESS PERIOD TIME 2.63000E+06  43833.      730.56      30.440     8.33397E-02
         TOTAL TIME 6.05767E+07 1.00961E+06  16827.      701.12      1.9196    
1
1
                            STRESS PERIOD NO.   25, LENGTH =   2630000.    
                            -----------------------------------------------

                              NUMBER OF TIME STEPS =    30

                               MULTIPLIER FOR DELT =     1.000

                            INITIAL TIME STEP SIZE =   87666.66    

 REUSING NON-PARAMETER GHB CELLS FROM LAST STRESS PERIOD

      2 GHB CELLS

 REUSING STREAM SEGMENT DATA FROM LAST STRESS PERIOD



            AREAL INFILTRATION RATE
 READING ON UNIT   19 WITH FORMAT: (FREE)              

            1           2           3           4           5           6           7           8           9          10
 ........................................................................................................................
   1   1.0000E-10  2.0000E-10   0.000       0.000       0.000       0.000       0.000       0.000       0.000       0.000    
   2   2.0000E-10  1.0000E-10  2.0000E-10   0.000       0.000      8.0000E-10  8.0000E-10  5.0000E-10   0.000       0.000    
   3    0.000      5.0000E-10  1.0000E-10  1.0000E-10  8.0000E-10  8.0000E-10  5.0000E-10  5.0000E-10   0.000       0.000    
   4   8.0000E-10  5.0000E-10  1.0000E-10  1.0000E-10  1.0000E-10  1.0000E-10  1.0000E-10  1.0000E-10  2.0000E-10   0.000    
   5   8.0000E-10  5.0000E-10  1.0000E-10  1.0000E-10  1.0000E-10  1.0000E-10  1.0000E-10  1.0000E-10  1.0000E-10  1.0000E-10
   6   8.0000E-10  5.0000E-10  5.0000E-10  2.0000E-10  2.0000E-10  1.0000E-10  1.0000E-10  1.0000E-10  1.0000E-10  5.0000E-10
   7   8.0000E-10  5.0000E-10  5.0000E-10  2.0000E-10  2.0000E-10  1.0000E-10  1.0000E-10  2.0000E-10  2.0000E-10   0.000    
   8    0.000      5.0000E-10  5.0000E-10  2.0000E-10  2.0000E-10  1.0000E-10  1.0000E-10  2.0000E-10  5.0000E-10   0.000    
   9    0.000      5.0000E-10  5.0000E-10  2.0000E-10  2.0000E-10  1.0000E-10  1.0000E-10  2.0000E-10  5.0000E-10   0.000    
  10    0.000      5.0000E-10  5.0000E-10  2.0000E-10  2.0000E-10  1.0000E-10  1.0000E-10  2.0000E-10  5.0000E-10  8.0000E-10
  11    0.000      1.0000E-10  1.0000E-10  1.0000E-10  1.0000E-10  1.0000E-10  1.0000E-10  2.0000E-10  5.0000E-10   0.000    
  12   1.0000E-10  1.0000E-10  1.0000E-10  1.0000E-10  1.0000E-10  1.0000E-10  1.0000E-10  1.0000E-10  2.0000E-10   0.000    
  13   1.0000E-10  1.0000E-10  2.0000E-10  2.0000E-10  2.0000E-10  2.0000E-10  2.0000E-10  1.0000E-10  1.0000E-10   0.000    
  14    0.000      2.0000E-10  5.0000E-10  5.0000E-10  5.0000E-10  5.0000E-10  5.0000E-10  2.0000E-10  1.0000E-10   0.000    
  15    0.000       0.000      8.0000E-10  8.0000E-10  8.0000E-10  8.0000E-10   0.000       0.000       0.000       0.000    

                  ET RATE =  5.000000E-10

 USING ET EXTINCTION DEPTH FROM PREVIOUS STRESS PERIOD. CURRENT PERIOD IS:      25

 USING EXTINCTION WATER CONTENT FROM PREVIOUS STRESS PERIOD. CURRENT PERIOD IS:      25

 USING AIR ENTRY PRESSURE FROM PREVIOUS STRESS PERIOD. CURRENT PERIOD IS:      25

 USING ROOT PRESSURE HEAD FROM PREVIOUS STRESS PERIOD. CURRENT PERIOD IS:      25

 USING ROOT ACTIVITY FROM PREVIOUS STRESS PERIOD. CURRENT PERIOD IS:      25

 PROCESSING AG STRESS PERIOD DATA

 READING AG STRESS PERIOD DATA

 READING IRRIGATION SEGMENT

 READING IRRIGATION WELL

 READING SUPPLEMENTAL WELL

 NO IRRPOND OR REUSING IRRPOND DATA FROM LAST STRESS PERIOD

 END PROCESSING AG STRESS PERIOD DATA OPTIONS
 
 SOLVING FOR HEAD 
                                                   Max.-Head-Change                         Max.-Flux-Residual
  Residual-Control   Outer-Iter.   Inner-Iter.     Column Row Layer    Maximum-Head-Change  Column Row Layer    Maximum-Flux-Residual          L2-NORM 
          0                 1           2             4    7     1       0.2431648650E-01       4    7    1         0.1279455799E+01      0.2741210915E+01
          0                 2           2             4    7     1      -0.2365343904E-02       4    7    1        -0.1279464459E+00      0.2741208719E+00
          0                 3           2             4    7     1       0.1610710253E-03       4    7    1         0.8956246884E-02      0.1918836624E-01
          0                 4           1             4    7     1      -0.6409167443E-05       4    7    1        -0.3663110449E-03      0.7848026760E-03

    ------------------------------------------------
       NWT REQUIRED            4 OUTER ITERATIONS 
       AND A TOTAL OF          7 INNER ITERATIONS.
    ------------------------------------------------

 NO OUTPUT CONTROL FOR STRESS PERIOD   25   TIME STEP    1
 
 SOLVING FOR HEAD 
                                                   Max.-Head-Change                         Max.-Flux-Residual
  Residual-Control   Outer-Iter.   Inner-Iter.     Column Row Layer    Maximum-Head-Change  Column Row Layer    Maximum-Flux-Residual          L2-NORM 
          0                 1           2             4    7     1       0.2401344079E-01       4    7    1         0.1263434820E+01      0.2713530560E+01
          0                 2           2             4    7     1      -0.2335865498E-02       4    7    1        -0.1263443261E+00      0.2713526569E+00
          0                 3           2             4    7     1       0.1590636585E-03       4    7    1         0.8844098664E-02      0.1899461998E-01
          0                 4           1             4    7     1      -0.6329292604E-05       4    7    1        -0.3617241798E-03      0.7768737033E-03

    ------------------------------------------------
       NWT REQUIRED            4 OUTER ITERATIONS 
       AND A TOTAL OF          7 INNER ITERATIONS.
    ------------------------------------------------

 NO OUTPUT CONTROL FOR STRESS PERIOD   25   TIME STEP    2
 
 SOLVING FOR HEAD 
                                                   Max.-Head-Change                         Max.-Flux-Residual
  Residual-Control   Outer-Iter.   Inner-Iter.     Column Row Layer    Maximum-Head-Change  Column Row Layer    Maximum-Flux-Residual          L2-NORM 
          0                 1           2             4    7     1       0.2371567176E-01       4    7    1         0.1247693064E+01      0.2686090374E+01
          0                 2           2             4    7     1      -0.2306900376E-02       4    7    1        -0.1247701293E+00      0.2686086374E+00
          0                 3           2             4    7     1       0.1570912439E-03       4    7    1         0.8733905039E-02      0.1880251364E-01
          0                 4           1             4    7     1      -0.6250808047E-05       4    7    1        -0.3572172395E-03      0.7690194592E-03

    ------------------------------------------------
       NWT REQUIRED            4 OUTER ITERATIONS 
       AND A TOTAL OF          7 INNER ITERATIONS.
    ------------------------------------------------

 NO OUTPUT CONTROL FOR STRESS PERIOD   25   TIME STEP    3
 
 SOLVING FOR HEAD 
                                                   Max.-Head-Change                         Max.-Flux-Residual
  Residual-Control   Outer-Iter.   Inner-Iter.     Column Row Layer    Maximum-Head-Change  Column Row Layer    Maximum-Flux-Residual          L2-NORM 
          0                 1           2             4    7     1       0.2342294114E-01       4    7    1         0.1232217594E+01      0.2659126367E+01
          0                 2           2             4    7     1      -0.2278425362E-02       4    7    1        -0.1232225617E+00      0.2659122640E+00
          0                 3           2             4    7     1       0.1551522039E-03       4    7    1         0.8625575445E-02      0.1861377188E-01
          0                 4           1             4    7     1      -0.6173651947E-05       4    7    1        -0.3527865545E-03      0.7612970321E-03

    ------------------------------------------------
       NWT REQUIRED            4 OUTER ITERATIONS 
       AND A TOTAL OF          7 INNER ITERATIONS.
    ------------------------------------------------

 NO OUTPUT CONTROL FOR STRESS PERIOD   25   TIME STEP    4
 
 SOLVING FOR HEAD 
                                                   Max.-Head-Change                         Max.-Flux-Residual
  Residual-Control   Outer-Iter.   Inner-Iter.     Column Row Layer    Maximum-Head-Change  Column Row Layer    Maximum-Flux-Residual          L2-NORM 
          0                 1           2             4    7     1       0.2313528741E-01       4    7    1         0.1217010657E+01      0.2632627258E+01
          0                 2           2             4    7     1      -0.2250444200E-02       4    7    1        -0.1217018479E+00      0.2632623707E+00
          0                 3           2             4    7     1       0.1532467938E-03       4    7    1         0.8519125640E-02      0.1842828304E-01
          0                 4           1             4    7     1      -0.6097834090E-05       4    7    1        -0.3484327594E-03      0.7537096517E-03

    ------------------------------------------------
       NWT REQUIRED            4 OUTER ITERATIONS 
       AND A TOTAL OF          7 INNER ITERATIONS.
    ------------------------------------------------

 NO OUTPUT CONTROL FOR STRESS PERIOD   25   TIME STEP    5
 
 SOLVING FOR HEAD 
                                                   Max.-Head-Change                         Max.-Flux-Residual
  Residual-Control   Outer-Iter.   Inner-Iter.     Column Row Layer    Maximum-Head-Change  Column Row Layer    Maximum-Flux-Residual          L2-NORM 
          0                 1           2             4    7     1       0.2285260454E-01       4    7    1         0.1202066949E+01      0.2606573349E+01
          0                 2           2             4    7     1      -0.2222946575E-02       4    7    1        -0.1202074575E+00      0.2606570035E+00
          0                 3           2             4    7     1       0.1513743103E-03       4    7    1         0.8414518446E-02      0.1824593668E-01
          0                 4           1             4    7     1      -0.6023326040E-05       4    7    1        -0.3441543179E-03      0.7463590109E-03

    ------------------------------------------------
       NWT REQUIRED            4 OUTER ITERATIONS 
       AND A TOTAL OF          7 INNER ITERATIONS.
    ------------------------------------------------

 NO OUTPUT CONTROL FOR STRESS PERIOD   25   TIME STEP    6
 
 SOLVING FOR HEAD 
                                                   Max.-Head-Change                         Max.-Flux-Residual
  Residual-Control   Outer-Iter.   Inner-Iter.     Column Row Layer    Maximum-Head-Change  Column Row Layer    Maximum-Flux-Residual          L2-NORM 
          0                 1           2             4    7     1       0.2257465917E-01       4    7    1         0.1187373670E+01      0.2580966934E+01
          0                 2           2             4    7     1      -0.2195909788E-02       4    7    1        -0.1187381105E+00      0.2580963715E+00
          0                 3           2             4    7     1       0.1495332081E-03       4    7    1         0.8311664292E-02      0.1806666505E-01
          0                 4           1             4    7     1      -0.5950066894E-05       4    7    1        -0.3399475793E-03      0.7389278381E-03

    ------------------------------------------------
       NWT REQUIRED            4 OUTER ITERATIONS 
       AND A TOTAL OF          7 INNER ITERATIONS.
    ------------------------------------------------

 NO OUTPUT CONTROL FOR STRESS PERIOD   25   TIME STEP    7
 
 SOLVING FOR HEAD 
                                                   Max.-Head-Change                         Max.-Flux-Residual
  Residual-Control   Outer-Iter.   Inner-Iter.     Column Row Layer    Maximum-Head-Change  Column Row Layer    Maximum-Flux-Residual          L2-NORM 
          0                 1           2             4    7     1       0.2230149559E-01       4    7    1         0.1172933323E+01      0.2555794059E+01
          0                 2           2             4    7     1      -0.2169338145E-02       4    7    1        -0.1172940573E+00      0.2555790890E+00
          0                 3           2             4    7     1       0.1477237804E-03       4    7    1         0.8210580704E-02      0.1789045741E-01
          0                 4           1             4    7     1      -0.5878067935E-05       4    7    1        -0.3358132499E-03      0.7317180935E-03

    ------------------------------------------------
       NWT REQUIRED            4 OUTER ITERATIONS 
       AND A TOTAL OF          7 INNER ITERATIONS.
    ------------------------------------------------

 NO OUTPUT CONTROL FOR STRESS PERIOD   25   TIME STEP    8
 
 SOLVING FOR HEAD 
                                                   Max.-Head-Change                         Max.-Flux-Residual
  Residual-Control   Outer-Iter.   Inner-Iter.     Column Row Layer    Maximum-Head-Change  Column Row Layer    Maximum-Flux-Residual          L2-NORM 
          0                 1           2             4    7     1       0.2203314570E-01       4    7    1         0.1158748207E+01      0.2531041565E+01
          0                 2           2             4    7     1      -0.2143234752E-02       4    7    1        -0.1158755276E+00      0.2531038499E+00
          0                 3           2             4    7     1       0.1459462385E-03       4    7    1         0.8111283747E-02      0.1771719659E-01
          0                 4           1             4    7     1      -0.5807338027E-05       4    7    1        -0.3317519950E-03      0.7246257067E-03

    ------------------------------------------------
       NWT REQUIRED            4 OUTER ITERATIONS 
       AND A TOTAL OF          7 INNER ITERATIONS.
    ------------------------------------------------

 NO OUTPUT CONTROL FOR STRESS PERIOD   25   TIME STEP    9
 
 SOLVING FOR HEAD 
                                                   Max.-Head-Change                         Max.-Flux-Residual
  Residual-Control   Outer-Iter.   Inner-Iter.     Column Row Layer    Maximum-Head-Change  Column Row Layer    Maximum-Flux-Residual          L2-NORM 
          0                 1           2             4    7     1       0.2176923913E-01       4    7    1         0.1144798068E+01      0.2506699528E+01
          0                 2           2             4    7     1      -0.2117563579E-02       4    7    1        -0.1144804962E+00      0.2506696566E+00
          0                 3           2             4    7     1       0.1441981293E-03       4    7    1         0.8013631660E-02      0.1754680157E-01
          0                 4           1             4    7     1      -0.5737779082E-05       4    7    1        -0.3277580256E-03      0.7176690076E-03

    ------------------------------------------------
       NWT REQUIRED            4 OUTER ITERATIONS 
       AND A TOTAL OF          7 INNER ITERATIONS.
    ------------------------------------------------

 NO OUTPUT CONTROL FOR STRESS PERIOD   25   TIME STEP   10
 
 SOLVING FOR HEAD 
                                                   Max.-Head-Change                         Max.-Flux-Residual
  Residual-Control   Outer-Iter.   Inner-Iter.     Column Row Layer    Maximum-Head-Change  Column Row Layer    Maximum-Flux-Residual          L2-NORM 
          0                 1           2             4    7     1       0.2150982189E-01       4    7    1         0.1131085609E+01      0.2482756417E+01
          0                 2           2             4    7     1      -0.2092329102E-02       4    7    1        -0.1131092332E+00      0.2482753626E+00
          0                 3           2             4    7     1       0.1424797574E-03       4    7    1         0.7917643378E-02      0.1737919598E-01
          0                 4           1             4    7     1      -0.5669403304E-05       4    7    1        -0.3238320944E-03      0.7108016368E-03

    ------------------------------------------------
       NWT REQUIRED            4 OUTER ITERATIONS 
       AND A TOTAL OF          7 INNER ITERATIONS.
    ------------------------------------------------

 NO OUTPUT CONTROL FOR STRESS PERIOD   25   TIME STEP   11
 
 SOLVING FOR HEAD 
                                                   Max.-Head-Change                         Max.-Flux-Residual
  Residual-Control   Outer-Iter.   Inner-Iter.     Column Row Layer    Maximum-Head-Change  Column Row Layer    Maximum-Flux-Residual          L2-NORM 
          0                 1           2             4    7     1       0.2125480144E-01       4    7    1         0.1117605915E+01      0.2459209862E+01
          0                 2           2             4    7     1      -0.2067522313E-02       4    7    1        -0.1117612472E+00      0.2459248069E+00
          0                 3           2             4    7     1       0.1407905021E-03       4    7    1         0.7823284472E-02      0.1721394059E-01
          0                 4           1             4    7     1      -0.5602186054E-05       4    7    1        -0.3199728096E-03      0.7040549578E-03

    ------------------------------------------------
       NWT REQUIRED            4 OUTER ITERATIONS 
       AND A TOTAL OF          7 INNER ITERATIONS.
    ------------------------------------------------

 NO OUTPUT CONTROL FOR STRESS PERIOD   25   TIME STEP   12
 
 SOLVING FOR HEAD 
                                                   Max.-Head-Change                         Max.-Flux-Residual
  Residual-Control   Outer-Iter.   Inner-Iter.     Column Row Layer    Maximum-Head-Change  Column Row Layer    Maximum-Flux-Residual          L2-NORM 
          0                 1           2             4    7     1       0.2100421722E-01       4    7    1         0.1104361491E+01      0.2436046784E+01
          0                 2           2             4    7     1      -0.2043147873E-02       4    7    1        -0.1104367886E+00      0.2436536285E+00
          0                 3           2             4    7     1       0.1391307031E-03       4    7    1         0.7730572508E-02      0.1705567854E-01
          0                 4           1             4    7     1      -0.5536141149E-05       4    7    1        -0.3161808802E-03      0.6975739855E-03

    ------------------------------------------------
       NWT REQUIRED            4 OUTER ITERATIONS 
       AND A TOTAL OF          7 INNER ITERATIONS.
    ------------------------------------------------

 NO OUTPUT CONTROL FOR STRESS PERIOD   25   TIME STEP   13
 
 SOLVING FOR HEAD 
                                                   Max.-Head-Change                         Max.-Flux-Residual
  Residual-Control   Outer-Iter.   Inner-Iter.     Column Row Layer    Maximum-Head-Change  Column Row Layer    Maximum-Flux-Residual          L2-NORM 
          0                 1           2             4    7     1       0.2075783775E-01       4    7    1         0.1091339731E+01      0.2413218637E+01
          0                 2           2             4    7     1      -0.2019180833E-02       4    7    1        -0.1091345970E+00      0.2413215764E+00
          0                 3           2             4    7     1       0.1374986389E-03       4    7    1         0.7639419198E-02      0.1689244313E-01
          0                 4           1             4    7     1      -0.5471200087E-05       4    7    1        -0.3124527104E-03      0.6908935230E-03

    ------------------------------------------------
       NWT REQUIRED            4 OUTER ITERATIONS 
       AND A TOTAL OF          7 INNER ITERATIONS.
    ------------------------------------------------

 NO OUTPUT CONTROL FOR STRESS PERIOD   25   TIME STEP   14
 
 SOLVING FOR HEAD 
                                                   Max.-Head-Change                         Max.-Flux-Residual
  Residual-Control   Outer-Iter.   Inner-Iter.     Column Row Layer    Maximum-Head-Change  Column Row Layer    Maximum-Flux-Residual          L2-NORM 
          0                 1           2             4    7     1       0.2051557574E-01       4    7    1         0.1078536067E+01      0.2390752454E+01
          0                 2           2             4    7     1      -0.1995615120E-02       4    7    1        -0.1078542152E+00      0.2390749637E+00
          0                 3           2             4    7     1       0.1358939030E-03       4    7    1         0.7549792563E-02      0.1673518093E-01
          0                 4           1             4    7     1      -0.5407346176E-05       4    7    1        -0.3087869698E-03      0.6844690217E-03

    ------------------------------------------------
       NWT REQUIRED            4 OUTER ITERATIONS 
       AND A TOTAL OF          7 INNER ITERATIONS.
    ------------------------------------------------

 NO OUTPUT CONTROL FOR STRESS PERIOD   25   TIME STEP   15
 
 SOLVING FOR HEAD 
                                                   Max.-Head-Change                         Max.-Flux-Residual
  Residual-Control   Outer-Iter.   Inner-Iter.     Column Row Layer    Maximum-Head-Change  Column Row Layer    Maximum-Flux-Residual          L2-NORM 
          0                 1           2             4    7     1       0.2027747930E-01       4    7    1         0.1065953148E+01      0.2368655840E+01
          0                 2           2             4    7     1      -0.1972454608E-02       4    7    1        -0.1065959085E+00      0.2368652988E+00
          0                 3           2             4    7     1       0.1343167601E-03       4    7    1         0.7461711207E-02      0.1658050851E-01
          0                 4           1             4    7     1      -0.5344589890E-05       4    7    1        -0.3051844276E-03      0.6781335637E-03

    ------------------------------------------------
       NWT REQUIRED            4 OUTER ITERATIONS 
       AND A TOTAL OF          7 INNER ITERATIONS.
    ------------------------------------------------

 NO OUTPUT CONTROL FOR STRESS PERIOD   25   TIME STEP   16
 
 SOLVING FOR HEAD 
                                                   Max.-Head-Change                         Max.-Flux-Residual
  Residual-Control   Outer-Iter.   Inner-Iter.     Column Row Layer    Maximum-Head-Change  Column Row Layer    Maximum-Flux-Residual          L2-NORM 
          0                 1           2             4    7     1       0.2004332267E-01       4    7    1         0.1053578902E+01      0.2346910032E+01
          0                 2           2             4    7     1      -0.1949677339E-02       4    7    1        -0.1053584694E+00      0.2346907145E+00
          0                 3           2             4    7     1       0.1327657149E-03       4    7    1         0.7375090565E-02      0.1642828677E-01
          0                 4           1             4    7     1      -0.5282872286E-05       4    7    1        -0.3016416465E-03      0.6719176847E-03

    ------------------------------------------------
       NWT REQUIRED            4 OUTER ITERATIONS 
       AND A TOTAL OF          7 INNER ITERATIONS.
    ------------------------------------------------

 NO OUTPUT CONTROL FOR STRESS PERIOD   25   TIME STEP   17
 
 SOLVING FOR HEAD 
                                                   Max.-Head-Change                         Max.-Flux-Residual
  Residual-Control   Outer-Iter.   Inner-Iter.     Column Row Layer    Maximum-Head-Change  Column Row Layer    Maximum-Flux-Residual          L2-NORM 
          0                 1           2             4    7     1       0.1981302510E-01       4    7    1         0.1041408928E+01      0.2325507941E+01
          0                 2           2             4    7     1      -0.1927275457E-02       4    7    1        -0.1041414580E+00      0.2325504907E+00
          0                 3           2             4    7     1       0.1312402317E-03       4    7    1         0.7289899861E-02      0.1627846837E-01
          0                 4           1             4    7     1      -0.5222172295E-05       4    7    1        -0.2981573457E-03      0.6657867847E-03

    ------------------------------------------------
       NWT REQUIRED            4 OUTER ITERATIONS 
       AND A TOTAL OF          7 INNER ITERATIONS.
    ------------------------------------------------

 NO OUTPUT CONTROL FOR STRESS PERIOD   25   TIME STEP   18
 
 SOLVING FOR HEAD 
                                                   Max.-Head-Change                         Max.-Flux-Residual
  Residual-Control   Outer-Iter.   Inner-Iter.     Column Row Layer    Maximum-Head-Change  Column Row Layer    Maximum-Flux-Residual          L2-NORM 
          0                 1           2             4    7     1       0.1958663584E-01       4    7    1         0.1029446347E+01      0.2304438945E+01
          0                 2           2             4    7     1      -0.1905253752E-02       4    7    1        -0.1029451861E+00      0.2304435997E+00
          0                 3           2             4    7     1       0.1297406371E-03       4    7    1         0.7206160915E-02      0.1613098963E-01
          0                 4           1             4    7     1      -0.5162501890E-05       4    7    1        -0.2947324210E-03      0.6597578604E-03

    ------------------------------------------------
       NWT REQUIRED            4 OUTER ITERATIONS 
       AND A TOTAL OF          7 INNER ITERATIONS.
    ------------------------------------------------

 NO OUTPUT CONTROL FOR STRESS PERIOD   25   TIME STEP   19
 
 SOLVING FOR HEAD 
                                                   Max.-Head-Change                         Max.-Flux-Residual
  Residual-Control   Outer-Iter.   Inner-Iter.     Column Row Layer    Maximum-Head-Change  Column Row Layer    Maximum-Flux-Residual          L2-NORM 
          0                 1           2             4    7     1       0.1936407339E-01       4    7    1         0.1017686404E+01      0.2283709517E+01
          0                 2           2             4    7     1      -0.1883604298E-02       4    7    1        -0.1017691786E+00      0.2283706423E+00
          0                 3           2             4    7     1       0.1282663916E-03       4    7    1         0.7123840488E-02      0.1598588014E-01
          0                 4           1             4    7     1      -0.5103840118E-05       4    7    1        -0.2913655010E-03      0.6538188206E-03

    ------------------------------------------------
       NWT REQUIRED            4 OUTER ITERATIONS 
       AND A TOTAL OF          7 INNER ITERATIONS.
    ------------------------------------------------

 NO OUTPUT CONTROL FOR STRESS PERIOD   25   TIME STEP   20
 
 SOLVING FOR HEAD 
                                                   Max.-Head-Change                         Max.-Flux-Residual
  Residual-Control   Outer-Iter.   Inner-Iter.     Column Row Layer    Maximum-Head-Change  Column Row Layer    Maximum-Flux-Residual          L2-NORM 
          0                 1           2             4    7     1       0.1914511359E-01       4    7    1         0.1006117570E+01      0.2263294644E+01
          0                 2           2             4    7     1      -0.1862305287E-02       4    7    1        -0.1006122822E+00      0.2263291597E+00
          0                 3           2             4    7     1       0.1268160096E-03       4    7    1         0.7042857813E-02      0.1584298786E-01
          0                 4           1             4    7     1      -0.5046128149E-05       4    7    1        -0.2880533070E-03      0.6479801735E-03

    ------------------------------------------------
       NWT REQUIRED            4 OUTER ITERATIONS 
       AND A TOTAL OF          7 INNER ITERATIONS.
    ------------------------------------------------

 NO OUTPUT CONTROL FOR STRESS PERIOD   25   TIME STEP   21
 
 SOLVING FOR HEAD 
                                                   Max.-Head-Change                         Max.-Flux-Residual
  Residual-Control   Outer-Iter.   Inner-Iter.     Column Row Layer    Maximum-Head-Change  Column Row Layer    Maximum-Flux-Residual          L2-NORM 
          0                 1           2             4    7     1       0.1892995370E-01       4    7    1         0.9947501406E+00      0.2243208009E+01
          0                 2           2             4    7     1      -0.1841375912E-02       4    7    1        -0.9947552669E-01      0.2243204890E+00
          0                 3           2             4    7     1       0.1253907991E-03       4    7    1         0.6963285043E-02      0.1570237462E-01
          0                 4           1             4    7     1      -0.4989417789E-05       4    7    1        -0.2847987791E-03      0.6422252786E-03

    ------------------------------------------------
       NWT REQUIRED            4 OUTER ITERATIONS 
       AND A TOTAL OF          7 INNER ITERATIONS.
    ------------------------------------------------

 NO OUTPUT CONTROL FOR STRESS PERIOD   25   TIME STEP   22
 
 SOLVING FOR HEAD 
                                                   Max.-Head-Change                         Max.-Flux-Residual
  Residual-Control   Outer-Iter.   Inner-Iter.     Column Row Layer    Maximum-Head-Change  Column Row Layer    Maximum-Flux-Residual          L2-NORM 
          0                 1           2             4    7     1       0.1871823760E-01       4    7    1         0.9835651172E+00      0.2223424529E+01
          0                 2           2             4    7     1      -0.1820781527E-02       4    7    1        -0.9835701208E-01      0.2223421307E+00
          0                 3           1             4    7     1       0.1239884028E-03       4    7    1         0.6884989089E-02      0.1556387780E-01
          0                 4           1             4    7     1      -0.4933618320E-05       4    7    1        -0.2815964838E-03      0.6365639855E-03

    ------------------------------------------------
       NWT REQUIRED            4 OUTER ITERATIONS 
       AND A TOTAL OF          6 INNER ITERATIONS.
    ------------------------------------------------

 NO OUTPUT CONTROL FOR STRESS PERIOD   25   TIME STEP   23
 
 SOLVING FOR HEAD 
                                                   Max.-Head-Change                         Max.-Flux-Residual
  Residual-Control   Outer-Iter.   Inner-Iter.     Column Row Layer    Maximum-Head-Change  Column Row Layer    Maximum-Flux-Residual          L2-NORM 
          0                 1           2             4    7     1       0.1850989451E-01       4    7    1         0.9725586480E+00      0.2203944563E+01
          0                 2           2             4    7     1      -0.1800515248E-02       4    7    1        -0.9725635323E-01      0.2203941177E+00
          0                 3           1             4    7     1       0.1226083457E-03       4    7    1         0.6807943049E-02      0.1542752167E-01
          0                 4           1             4    7     1      -0.4878704066E-05       4    7    1        -0.2784452665E-03      0.6309853245E-03

    ------------------------------------------------
       NWT REQUIRED            4 OUTER ITERATIONS 
       AND A TOTAL OF          6 INNER ITERATIONS.
    ------------------------------------------------

 NO OUTPUT CONTROL FOR STRESS PERIOD   25   TIME STEP   24
 
 SOLVING FOR HEAD 
                                                   Max.-Head-Change                         Max.-Flux-Residual
  Residual-Control   Outer-Iter.   Inner-Iter.     Column Row Layer    Maximum-Head-Change  Column Row Layer    Maximum-Flux-Residual          L2-NORM 
          0                 1           2             4    7     1       0.1830512173E-01       4    7    1         0.9617416793E+00      0.2184762946E+01
          0                 2           2             4    7     1      -0.1780596269E-02       4    7    1        -0.9617464478E-01      0.2184759566E+00
          0                 3           1             4    7     1       0.1212519390E-03       4    7    1         0.6732223532E-02      0.1529324864E-01
          0                 4           1             4    7     1      -0.4824731787E-05       4    7    1        -0.2753483602E-03      0.6254923488E-03

    ------------------------------------------------
       NWT REQUIRED            4 OUTER ITERATIONS 
       AND A TOTAL OF          6 INNER ITERATIONS.
    ------------------------------------------------

 NO OUTPUT CONTROL FOR STRESS PERIOD   25   TIME STEP   25
 
 SOLVING FOR HEAD 
                                                   Max.-Head-Change                         Max.-Flux-Residual
  Residual-Control   Outer-Iter.   Inner-Iter.     Column Row Layer    Maximum-Head-Change  Column Row Layer    Maximum-Flux-Residual          L2-NORM 
          0                 1           2             4    7     1       0.1810370575E-01       4    7    1         0.9511025185E+00      0.2165877457E+01
          0                 2           2             4    7     1      -0.1761003820E-02       4    7    1        -0.9511071741E-01      0.2165874010E+00
          0                 3           1             4    7     1       0.1199177674E-03       4    7    1         0.6657748690E-02      0.1516106400E-01
          0                 4           1             4    7     1      -0.4771643687E-05       4    7    1        -0.2723023258E-03      0.6200958182E-03

    ------------------------------------------------
       NWT REQUIRED            4 OUTER ITERATIONS 
       AND A TOTAL OF          6 INNER ITERATIONS.
    ------------------------------------------------

 NO OUTPUT CONTROL FOR STRESS PERIOD   25   TIME STEP   26
 
 SOLVING FOR HEAD 
                                                   Max.-Head-Change                         Max.-Flux-Residual
  Residual-Control   Outer-Iter.   Inner-Iter.     Column Row Layer    Maximum-Head-Change  Column Row Layer    Maximum-Flux-Residual          L2-NORM 
          0                 1           2             4    7     1       0.1790543900E-01       4    7    1         0.9406300939E+00      0.2147272522E+01
          0                 2           2             4    7     1      -0.1741717709E-02       4    7    1        -0.9406346397E-01      0.2147269039E+00
          0                 3           1             4    7     1       0.1186044564E-03       4    7    1         0.6584441027E-02      0.1503081925E-01
          0                 4           1             4    7     1      -0.4719386003E-05       4    7    1        -0.2693040406E-03      0.6147536117E-03

    ------------------------------------------------
       NWT REQUIRED            4 OUTER ITERATIONS 
       AND A TOTAL OF          6 INNER ITERATIONS.
    ------------------------------------------------

 NO OUTPUT CONTROL FOR STRESS PERIOD   25   TIME STEP   27
 
 SOLVING FOR HEAD 
                                                   Max.-Head-Change                         Max.-Flux-Residual
  Residual-Control   Outer-Iter.   Inner-Iter.     Column Row Layer    Maximum-Head-Change  Column Row Layer    Maximum-Flux-Residual          L2-NORM 
          0                 1           2             4    7     1       0.1771052405E-01       4    7    1         0.9303355687E+00      0.2128946075E+01
          0                 2           2             4    7     1      -0.1722757641E-02       4    7    1        -0.9303400076E-01      0.2128942641E+00
          0                 3           1             4    7     1       0.1173133475E-03       4    7    1         0.6512378671E-02      0.1490253718E-01
          0                 4           1             4    7     1      -0.4668011232E-05       4    7    1        -0.2663566740E-03      0.6095046391E-03

    ------------------------------------------------
       NWT REQUIRED            4 OUTER ITERATIONS 
       AND A TOTAL OF          6 INNER ITERATIONS.
    ------------------------------------------------

 NO OUTPUT CONTROL FOR STRESS PERIOD   25   TIME STEP   28
 
 SOLVING FOR HEAD 
                                                   Max.-Head-Change                         Max.-Flux-Residual
  Residual-Control   Outer-Iter.   Inner-Iter.     Column Row Layer    Maximum-Head-Change  Column Row Layer    Maximum-Flux-Residual          L2-NORM 
          0                 1           2             4    7     1       0.1751874977E-01       4    7    1         0.9202075210E+00      0.2110895958E+01
          0                 2           2             4    7     1      -0.1704103078E-02       4    7    1        -0.9202118561E-01      0.2110892539E+00
          0                 3           1             4    7     1       0.1160430425E-03       4    7    1         0.6441481672E-02      0.1477620710E-01
          0                 4           1             4    7     1      -0.4617464920E-05       4    7    1        -0.2634570035E-03      0.6043434011E-03

    ------------------------------------------------
       NWT REQUIRED            4 OUTER ITERATIONS 
       AND A TOTAL OF          6 INNER ITERATIONS.
    ------------------------------------------------

 NO OUTPUT CONTROL FOR STRESS PERIOD   25   TIME STEP   29
 
 SOLVING FOR HEAD 
                                                   Max.-Head-Change                         Max.-Flux-Residual
  Residual-Control   Outer-Iter.   Inner-Iter.     Column Row Layer    Maximum-Head-Change  Column Row Layer    Maximum-Flux-Residual          L2-NORM 
          0                 1           2             4    7     1       0.1733004999E-01       4    7    1         0.9102423115E+00      0.2093175201E+01
          0                 2           2             4    7     1      -0.1685747586E-02       4    7    1        -0.9102465454E-01      0.2093170307E+00
          0                 3           1             4    7     1       0.1147931027E-03       4    7    1         0.6371724553E-02      0.1465212569E-01
          0                 4           1             4    7     1      -0.4567728530E-05       4    7    1        -0.2606039204E-03      0.5992620620E-03

    ------------------------------------------------
       NWT REQUIRED            4 OUTER ITERATIONS 
       AND A TOTAL OF          6 INNER ITERATIONS.
    ------------------------------------------------

 NO OUTPUT CONTROL FOR STRESS PERIOD   25   TIME STEP   30



 STREAM LISTING     PERIOD     25   STEP       30

 LAYER ROW COL. STREAM  RCH.  FLOW INTO     FLOW TO   FLOW OUT OF   OVRLND.     DIRECT     STREAM       STREAM     STREAM     STREAM   STREAMBED  STREAMBED
                SEG.NO.  NO.  STRM. RCH.    AQUIFER    STRM. RCH.    RUNOFF     PRECIP       ET          HEAD       DEPTH      WIDTH   CONDCTNC.   GRADIENT

   1    1    1     1     1    7.4712E+00  1.2395E-01   7.3473E+00  0.000E+00  0.000E+00  0.000E+00  1.09386E+03  8.152E-01  7.220E+00  3.249E-02  1.272E+00
   1    2    2     1     2    7.3473E+00  1.9029E-01   7.1570E+00  0.000E+00  0.000E+00  0.000E+00  1.08887E+03  8.094E-01  7.136E+00  4.995E-02  1.270E+00
   1    3    3     1     3    7.1570E+00  1.6067E-01   6.9963E+00  0.000E+00  0.000E+00  0.000E+00  1.08322E+03  8.029E-01  7.042E+00  4.225E-02  1.268E+00
   1    3    4     1     4    6.9963E+00  1.4674E-01   6.8496E+00  0.000E+00  0.000E+00  0.000E+00  1.07821E+03  7.979E-01  6.962E+00  3.864E-02  1.266E+00
   1    4    5     2     1    4.8496E+00  2.6862E-01   4.5810E+00  0.000E+00  0.000E+00  0.000E+00  1.07238E+03  4.439E-01  1.200E+01  7.800E-02  1.148E+00
   1    5    6     2     2    4.5810E+00  2.0582E-01   4.3752E+00  0.000E+00  0.000E+00  0.000E+00  1.06694E+03  4.303E-01  1.200E+01  6.000E-02  1.143E+00
   1    6    6     2     3    4.3752E+00  2.0510E-01   4.1701E+00  0.000E+00  0.000E+00  0.000E+00  1.06221E+03  4.184E-01  1.200E+01  6.000E-02  1.139E+00
   1    7    6     2     4    4.1701E+00  2.0437E-01   3.9657E+00  0.000E+00  0.000E+00  0.000E+00  1.05748E+03  4.062E-01  1.200E+01  6.000E-02  1.135E+00
   1    8    6     2     5    3.9657E+00  2.0363E-01   3.7620E+00  0.000E+00  0.000E+00  0.000E+00  1.05275E+03  3.939E-01  1.200E+01  6.000E-02  1.131E+00
   1    3    5     3     1    2.0000E+00  2.8252E-01   1.7175E+00  0.000E+00  0.000E+00  0.000E+00  1.07555E+03  1.909E+00  9.636E+00  7.227E-02  1.955E+00
   1    3    6     3     2    1.7175E+00  2.4905E-01   1.4684E+00  0.000E+00  0.000E+00  0.000E+00  1.07264E+03  1.727E+00  8.909E+00  6.682E-02  1.864E+00
   1    3    7     3     3    1.4684E+00  1.9718E-01   1.2712E+00  0.000E+00  0.000E+00  0.000E+00  1.06987E+03  1.555E+00  8.218E+00  5.547E-02  1.777E+00
   1    4    8     3     4    1.2712E+00  2.2567E-01   1.0456E+00  0.000E+00  0.000E+00  0.000E+00  1.06682E+03  1.364E+00  7.455E+00  6.709E-02  1.682E+00
   1    5    8     3     5    1.0456E+00  1.5790E-01   8.8768E-01  0.000E+00  0.000E+00  0.000E+00  1.06362E+03  1.164E+00  6.655E+00  4.991E-02  1.582E+00
   1    6    8     3     6    8.8768E-01  5.5980E-02   8.3170E-01  0.000E+00  0.000E+00  0.000E+00  1.06158E+03  1.036E+00  6.145E+00  1.844E-02  1.518E+00
   1    5   10     4     1    1.0000E+01  9.0919E-02   9.9091E+00  0.000E+00  0.000E+00  0.000E+00  1.07836E+03  6.368E-01  1.000E+01  2.500E-02  1.212E+00
   1    5    9     4     2    9.9091E+00  1.8158E-01   9.7275E+00  0.000E+00  0.000E+00  0.000E+00  1.07154E+03  6.315E-01  1.000E+01  5.000E-02  1.211E+00
   1    6    8     4     3    9.7275E+00  1.2689E-01   9.6006E+00  0.000E+00  0.000E+00  0.000E+00  1.06381E+03  6.256E-01  1.000E+01  3.500E-02  1.209E+00
   1    6    8     5     1    1.0432E+01  2.2686E-01   1.0205E+01  0.000E+00  0.000E+00  0.000E+00  1.05868E+03  6.790E-01  1.542E+01  6.166E-02  1.226E+00
   1    7    7     5     2    1.0205E+01  2.7894E-01   9.9265E+00  0.000E+00  0.000E+00  0.000E+00  1.05417E+03  6.732E-01  1.519E+01  7.594E-02  1.224E+00
   1    8    7     5     3    9.9265E+00  1.9221E-01   9.7343E+00  0.000E+00  0.000E+00  0.000E+00  1.04992E+03  6.676E-01  1.497E+01  5.241E-02  1.223E+00
   1    8    6     5     4    9.7343E+00  1.3577E-01   9.5985E+00  0.000E+00  0.000E+00  0.000E+00  1.04691E+03  6.637E-01  1.482E+01  3.706E-02  1.221E+00
   1    9    6     6     1    1.3361E+01  2.3005E-01   1.3131E+01  0.000E+00  0.000E+00  0.000E+00  1.04356E+03  8.341E-01  1.200E+01  6.000E-02  1.278E+00
   1   10    7     6     2    1.3131E+01  2.2952E-01   1.2901E+01  0.000E+00  0.000E+00  0.000E+00  1.03901E+03  8.254E-01  1.200E+01  6.000E-02  1.275E+00
   1   11    7     6     3    1.2901E+01  2.2900E-01   1.2672E+01  0.000E+00  0.000E+00  0.000E+00  1.03445E+03  8.166E-01  1.200E+01  6.000E-02  1.272E+00
   1   12    7     6     4    1.2672E+01  2.2847E-01   1.2444E+01  0.000E+00  0.000E+00  0.000E+00  1.02990E+03  8.078E-01  1.200E+01  6.000E-02  1.269E+00
   1   13    7     6     5    1.2444E+01  2.1774E-03   1.2441E+01  0.000E+00  0.000E+00  0.000E+00  1.02671E+03  8.034E-01  1.200E+01  2.400E-02  3.024E-02
   1   14    9     7     1    1.5000E+02  1.3808E+00   1.4862E+02  0.000E+00  0.000E+00  0.000E+00  1.03987E+03  2.288E+00  5.529E+01  5.593E-01  8.229E-01
   1   13    8     7     2    1.4862E+02  1.9783E+00   1.4664E+02  0.000E+00  0.000E+00  0.000E+00  1.03478E+03  2.279E+00  5.525E+01  6.147E-01  1.073E+00
   1   13    7     7     3    1.4664E+02  1.7122E+00   1.4493E+02  0.000E+00  0.000E+00  0.000E+00  1.02969E+03  2.269E+00  5.521E+01  5.584E-01  1.022E+00
   1   13    6     8     1    1.5737E+02  1.0915E+00   1.5628E+02  0.000E+00  0.000E+00  0.000E+00  1.02474E+03  2.864E+00  4.153E+01  4.232E-01  8.596E-01
   1   13    5     8     2    1.5628E+02  3.4604E-01   1.5593E+02  0.000E+00  0.000E+00  0.000E+00  1.01848E+03  2.859E+00  4.146E+01  4.225E-01  2.730E-01
   1   13    4     8     3    1.5593E+02 -1.8353E+00   1.5777E+02  0.000E+00  0.000E+00  0.000E+00  1.01224E+03  2.864E+00  4.153E+01  4.232E+00 -1.445E-01
   1   13    3     8     4    1.5777E+02 -3.3538E+00   1.6112E+02  0.000E+00  0.000E+00  0.000E+00  1.00601E+03  2.882E+00  4.179E+01  4.259E+00 -2.625E-01
   1   13    2     8     5    1.6112E+02 -2.5085E+00   1.6363E+02  0.000E+00  0.000E+00  0.000E+00  9.99777E+02  2.902E+00  4.208E+01  4.288E+00 -1.950E-01
   1   13    1     8     6    1.6363E+02 -1.9631E+00   1.6559E+02  0.000E+00  0.000E+00  0.000E+00  9.94792E+02  2.917E+00  4.229E+01  2.586E+00 -2.531E-01
   1    8    6     9     1    0.0000E+00  0.0000E+00   0.0000E+00  0.000E+00  0.000E+00  0.000E+00  1.07875E+03  0.000E+00  4.000E+00  0.000E+00  1.000E+00
   1    8    5     9     2    0.0000E+00  0.0000E+00   0.0000E+00  0.000E+00  0.000E+00  0.000E+00  1.07825E+03  0.000E+00  4.000E+00  0.000E+00  1.000E+00





UNSATURATED ZONE PACKAGE VOLUMETRIC BUDGET FOR  TIME STEP    30 STRESS PERIOD   25
  ------------------------------------------------------------------------------



     CUMULATIVE VOLUMES      L**3       RATES FOR THIS TIME STEP      L**3/T
     ------------------                 ------------------------

           IN:                                      IN:
           ---                                      ---
        INFILTRATION =  1095064381.1483          INFILTRATION =           0.8475

          OUT:                                     OUT:
          ----                                     ----
              UZF ET =   860260720.7789                UZF ET =           0.7500
        UZF RECHARGE =       73224.0000          UZF RECHARGE =       0.0000E+00

            IN - OUT =   234730436.3694              IN - OUT =       9.7500E-02

          STORAGE:                                 STORAGE:
          --------                                 --------
      STORAGE CHANGE =   234730644.1806        STORAGE CHANGE =       9.7500E-02

 PERCENT DISCREPANCY IS DIFFERENCE BETWEEN IN-OUT MINUS CHANGE IN STORAGE
 DIVIDED BY THE AVERAGE OF IN AND OUT TIMES 100

 PERCENT DISCREPANCY =          -0.00     PERCENT DISCREPANCY =           0.00






1
  VOLUMETRIC BUDGET FOR AGRICULTURAL FIELDS AT  END OF TIME STEP   30, STRESS PERIOD  25
  ------------------------------------------------------------------------------

     CUMULATIVE VOLUMES      L**3       RATES FOR THIS TIME STEP      L**3/T
     ------------------                 ------------------------

           IN:                                      IN:
           ---                                      ---
               AG WELLS  =   666412096.0000                 AG WELLS  =           0.0000
      DIVERSION SEGMENTS =   375163232.0000        DIVERSION SEGMENTS =           0.0000
       IRRIGATION PONDS  =           0.0000         IRRIGATION PONDS  =           0.0000
           GW IRRIGATION =           0.0000             GW IRRIGATION =           0.0000
           SW IRRIGATION =           0.0000             SW IRRIGATION =           0.0000
        SYSTEM LOSSES GW =           0.0000          SYSTEM LOSSES GW =           0.0000
        SYSTEM LOSSES SW =           0.0000          SYSTEM LOSSES SW =           0.0000

                TOTAL IN =  1041575296.0000                  TOTAL IN =           0.0000

          OUT:                                     OUT:
          ----                                     ----
               AG WELLS  =           0.0000                 AG WELLS  =           0.0000
      DIVERSION SEGMENTS =           0.0000        DIVERSION SEGMENTS =           0.0000
       IRRIGATION PONDS  =           0.0000         IRRIGATION PONDS  =           0.0000
           GW IRRIGATION =   666412096.0000             GW IRRIGATION =           0.0000
           SW IRRIGATION =   375170880.0000             SW IRRIGATION =           0.0000
        SYSTEM LOSSES GW =           0.0000          SYSTEM LOSSES GW =           0.0000
        SYSTEM LOSSES SW =           0.0000          SYSTEM LOSSES SW =           0.0000

               TOTAL OUT =  1041582976.0000                 TOTAL OUT =           0.0000

                IN - OUT =       -7680.0000                  IN - OUT =           0.0000

     PERCENT DISCREPANCY =          -0.00         PERCENT DISCREPANCY =           0.00



1
  VOLUMETRIC BUDGET FOR ENTIRE MODEL AT END OF TIME STEP   30, STRESS PERIOD  25
  ------------------------------------------------------------------------------

     CUMULATIVE VOLUMES      L**3       RATES FOR THIS TIME STEP      L**3/T
     ------------------                 ------------------------

           IN:                                      IN:
           ---                                      ---
             STORAGE     =  1022308416.0000               STORAGE     =           5.1791
       CONSTANT HEAD     =           0.0000         CONSTANT HEAD     =           0.0000
     HEAD DEP BOUNDS     =    18212874.0000       HEAD DEP BOUNDS     =           0.2888
      STREAM LEAKAGE     =   744120320.0000        STREAM LEAKAGE     =          11.5386
        UZF RECHARGE     =       73223.9531          UZF RECHARGE     =           0.0000
               GW ET     =           0.0000                 GW ET     =           0.0000
     SURFACE LEAKAGE     =           0.0000       SURFACE LEAKAGE     =           0.0000
           AG WELLS      =           0.0000             AG WELLS      =           0.0000

                TOTAL IN =  1784714752.0000                  TOTAL IN =          17.0066

          OUT:                                     OUT:
          ----                                     ----
             STORAGE     =   462099456.0000               STORAGE     =           7.0589
       CONSTANT HEAD     =           0.0000         CONSTANT HEAD     =           0.0000
     HEAD DEP BOUNDS     =    18190816.0000       HEAD DEP BOUNDS     =           0.2869
      STREAM LEAKAGE     =   638015936.0000        STREAM LEAKAGE     =           9.6607
        UZF RECHARGE     =           0.0000          UZF RECHARGE     =           0.0000
               GW ET     =           0.0000                 GW ET     =           0.0000
     SURFACE LEAKAGE     =           0.0000       SURFACE LEAKAGE     =           0.0000
           AG WELLS      =   666412096.0000             AG WELLS      =           0.0000

               TOTAL OUT =  1784718336.0000                 TOTAL OUT =          17.0066

                IN - OUT =       -3584.0000                  IN - OUT =       1.1444E-05

     PERCENT DISCREPANCY =          -0.00         PERCENT DISCREPANCY =           0.00






         TIME SUMMARY AT END OF TIME STEP   30 IN STRESS PERIOD   25
                    SECONDS     MINUTES      HOURS       DAYS        YEARS
                    -----------------------------------------------------------
   TIME STEP LENGTH  87667.      1461.1      24.352      1.0147     2.77799E-03
 STRESS PERIOD TIME 2.63000E+06  43833.      730.56      30.440     8.33397E-02
         TOTAL TIME 6.32067E+07 1.05345E+06  17557.      731.56      2.0029    
1
1
                            STRESS PERIOD NO.   26, LENGTH =   2630000.    
                            -----------------------------------------------

                              NUMBER OF TIME STEPS =    30

                               MULTIPLIER FOR DELT =     1.000

                            INITIAL TIME STEP SIZE =   87666.66    

 REUSING NON-PARAMETER GHB CELLS FROM LAST STRESS PERIOD

      2 GHB CELLS

 REUSING STREAM SEGMENT DATA FROM LAST STRESS PERIOD



            AREAL INFILTRATION RATE
 READING ON UNIT   19 WITH FORMAT: (FREE)              

            1           2           3           4           5           6           7           8           9          10
 ........................................................................................................................
   1   1.0000E-10  2.0000E-10   0.000       0.000       0.000       0.000       0.000       0.000       0.000       0.000    
   2   2.0000E-10  1.0000E-10  2.0000E-10   0.000       0.000      8.0000E-10  8.0000E-10  5.0000E-10   0.000       0.000    
   3    0.000      5.0000E-10  1.0000E-10  1.0000E-10  8.0000E-10  8.0000E-10  5.0000E-10  5.0000E-10   0.000       0.000    
   4   8.0000E-10  5.0000E-10  1.0000E-10  1.0000E-10  1.0000E-10  1.0000E-10  1.0000E-10  1.0000E-10  2.0000E-10   0.000    
   5   8.0000E-10  5.0000E-10  1.0000E-10  1.0000E-10  1.0000E-10  1.0000E-10  1.0000E-10  1.0000E-10  1.0000E-10  1.0000E-10
   6   8.0000E-10  5.0000E-10  5.0000E-10  2.0000E-10  2.0000E-10  1.0000E-10  1.0000E-10  1.0000E-10  1.0000E-10  5.0000E-10
   7   8.0000E-10  5.0000E-10  5.0000E-10  2.0000E-10  2.0000E-10  1.0000E-10  1.0000E-10  2.0000E-10  2.0000E-10   0.000    
   8    0.000      5.0000E-10  5.0000E-10  2.0000E-10  2.0000E-10  1.0000E-10  1.0000E-10  2.0000E-10  5.0000E-10   0.000    
   9    0.000      5.0000E-10  5.0000E-10  2.0000E-10  2.0000E-10  1.0000E-10  1.0000E-10  2.0000E-10  5.0000E-10   0.000    
  10    0.000      5.0000E-10  5.0000E-10  2.0000E-10  2.0000E-10  1.0000E-10  1.0000E-10  2.0000E-10  5.0000E-10  8.0000E-10
  11    0.000      1.0000E-10  1.0000E-10  1.0000E-10  1.0000E-10  1.0000E-10  1.0000E-10  2.0000E-10  5.0000E-10   0.000    
  12   1.0000E-10  1.0000E-10  1.0000E-10  1.0000E-10  1.0000E-10  1.0000E-10  1.0000E-10  1.0000E-10  2.0000E-10   0.000    
  13   1.0000E-10  1.0000E-10  2.0000E-10  2.0000E-10  2.0000E-10  2.0000E-10  2.0000E-10  1.0000E-10  1.0000E-10   0.000    
  14    0.000      2.0000E-10  5.0000E-10  5.0000E-10  5.0000E-10  5.0000E-10  5.0000E-10  2.0000E-10  1.0000E-10   0.000    
  15    0.000       0.000      8.0000E-10  8.0000E-10  8.0000E-10  8.0000E-10   0.000       0.000       0.000       0.000    

                  ET RATE =  5.000000E-10

 USING ET EXTINCTION DEPTH FROM PREVIOUS STRESS PERIOD. CURRENT PERIOD IS:      26

 USING EXTINCTION WATER CONTENT FROM PREVIOUS STRESS PERIOD. CURRENT PERIOD IS:      26

 USING AIR ENTRY PRESSURE FROM PREVIOUS STRESS PERIOD. CURRENT PERIOD IS:      26

 USING ROOT PRESSURE HEAD FROM PREVIOUS STRESS PERIOD. CURRENT PERIOD IS:      26

 USING ROOT ACTIVITY FROM PREVIOUS STRESS PERIOD. CURRENT PERIOD IS:      26

 PROCESSING AG STRESS PERIOD DATA

 READING AG STRESS PERIOD DATA

 READING IRRIGATION SEGMENT

 READING IRRIGATION WELL

 READING SUPPLEMENTAL WELL

 NO IRRPOND OR REUSING IRRPOND DATA FROM LAST STRESS PERIOD

 END PROCESSING AG STRESS PERIOD DATA OPTIONS
 
 SOLVING FOR HEAD 
                                                   Max.-Head-Change                         Max.-Flux-Residual
  Residual-Control   Outer-Iter.   Inner-Iter.     Column Row Layer    Maximum-Head-Change  Column Row Layer    Maximum-Flux-Residual          L2-NORM 
          0                 1           2             4    7     1       0.1714435465E-01       4    7    1         0.9004365109E+00      0.2076416249E+01
          0                 2           2             4    7     1      -0.1667684347E-02       4    7    1        -0.9004406465E-01      0.2076402303E+00
          0                 3           1             4    7     1       0.1135630646E-03       4    7    1         0.6303083335E-02      0.1453466156E-01
          0                 4           1             4    7     1      -0.4518783873E-05       4    7    1        -0.2577964817E-03      0.5944607695E-03

    ------------------------------------------------
       NWT REQUIRED            4 OUTER ITERATIONS 
       AND A TOTAL OF          6 INNER ITERATIONS.
    ------------------------------------------------

 NO OUTPUT CONTROL FOR STRESS PERIOD   26   TIME STEP    1
 
 SOLVING FOR HEAD 
                                                   Max.-Head-Change                         Max.-Flux-Residual
  Residual-Control   Outer-Iter.   Inner-Iter.     Column Row Layer    Maximum-Head-Change  Column Row Layer    Maximum-Flux-Residual          L2-NORM 
          0                 1           2             4    7     1       0.1696161439E-01       4    7    1         0.8907864853E+00      0.2057092991E+01
          0                 2           2             4    7     1      -0.1649908561E-02       4    7    1        -0.8907905251E-01      0.2057095703E+00
          0                 3           1             4    7     1       0.1123526008E-03       4    7    1         0.6235532531E-02      0.1439966319E-01
          0                 4           1             4    7     1      -0.4470618975E-05       4    7    1        -0.2550336671E-03      0.5889489042E-03

    ------------------------------------------------
       NWT REQUIRED            4 OUTER ITERATIONS 
       AND A TOTAL OF          6 INNER ITERATIONS.
    ------------------------------------------------

 NO OUTPUT CONTROL FOR STRESS PERIOD   26   TIME STEP    2
 
 SOLVING FOR HEAD 
                                                   Max.-Head-Change                         Max.-Flux-Residual
  Residual-Control   Outer-Iter.   Inner-Iter.     Column Row Layer    Maximum-Head-Change  Column Row Layer    Maximum-Flux-Residual          L2-NORM 
          0                 1           2             4    7     1       0.1678189959E-01       4    7    1         0.8812969864E+00      0.2039979750E+01
          0                 2           2             4    7     1      -0.1632427072E-02       4    7    1        -0.8813009327E-01      0.2039982416E+00
          0                 3           1             4    7     1       0.1111621777E-03       4    7    1         0.6169105459E-02      0.1427987015E-01
          0                 4           1             4    7     1      -0.4423250184E-05       4    7    1        -0.2523167816E-03      0.5840513341E-03

    ------------------------------------------------
       NWT REQUIRED            4 OUTER ITERATIONS 
       AND A TOTAL OF          6 INNER ITERATIONS.
    ------------------------------------------------

 NO OUTPUT CONTROL FOR STRESS PERIOD   26   TIME STEP    3
 
 SOLVING FOR HEAD 
                                                   Max.-Head-Change                         Max.-Flux-Residual
  Residual-Control   Outer-Iter.   Inner-Iter.     Column Row Layer    Maximum-Head-Change  Column Row Layer    Maximum-Flux-Residual          L2-NORM 
          0                 1           2             4    7     1       0.1660500838E-01       4    7    1         0.8719570425E+00      0.2023227380E+01
          0                 2           2             4    7     1      -0.1615220246E-02       4    7    1        -0.8719608978E-01      0.2023230153E+00
          0                 3           1             4    7     1       0.1099904579E-03       4    7    1         0.6103725282E-02      0.1416261121E-01
          0                 4           1             4    7     1      -0.4376626384E-05       4    7    1        -0.2496427189E-03      0.5792630043E-03

    ------------------------------------------------
       NWT REQUIRED            4 OUTER ITERATIONS 
       AND A TOTAL OF          6 INNER ITERATIONS.
    ------------------------------------------------

 NO OUTPUT CONTROL FOR STRESS PERIOD   26   TIME STEP    4
 
 SOLVING FOR HEAD 
                                                   Max.-Head-Change                         Max.-Flux-Residual
  Residual-Control   Outer-Iter.   Inner-Iter.     Column Row Layer    Maximum-Head-Change  Column Row Layer    Maximum-Flux-Residual          L2-NORM 
          0                 1           2             4    7     1       0.1643088118E-01       4    7    1         0.8627634977E+00      0.2006717674E+01
          0                 2           2             4    7     1      -0.1598320674E-02       4    7    1        -0.8627672643E-01      0.2007258696E+00
          0                 3           1             4    7     1       0.1088396610E-03       4    7    1         0.6039369913E-02      0.1405082101E-01
          0                 4           1             4    7     1      -0.4330834957E-05       4    7    1        -0.2470105765E-03      0.5746976716E-03

    ------------------------------------------------
       NWT REQUIRED            4 OUTER ITERATIONS 
       AND A TOTAL OF          6 INNER ITERATIONS.
    ------------------------------------------------

 NO OUTPUT CONTROL FOR STRESS PERIOD   26   TIME STEP    5
 
 SOLVING FOR HEAD 
                                                   Max.-Head-Change                         Max.-Flux-Residual
  Residual-Control   Outer-Iter.   Inner-Iter.     Column Row Layer    Maximum-Head-Change  Column Row Layer    Maximum-Flux-Residual          L2-NORM 
          0                 1           2             4    7     1       0.1625944959E-01       4    7    1         0.8537185273E+00      0.1990401704E+01
          0                 2           2             4    7     1      -0.1581606553E-02       4    7    1        -0.8537222104E-01      0.1990404486E+00
          0                 3           1             4    7     1       0.1077014922E-03       4    7    1         0.5976054564E-02      0.1393282276E-01
          0                 4           1             4    7     1      -0.4285546291E-05       4    7    1        -0.2444209827E-03      0.5705485559E-03

    ------------------------------------------------
       NWT REQUIRED            4 OUTER ITERATIONS 
       AND A TOTAL OF          6 INNER ITERATIONS.
    ------------------------------------------------

 NO OUTPUT CONTROL FOR STRESS PERIOD   26   TIME STEP    6
 
 SOLVING FOR HEAD 
                                                   Max.-Head-Change                         Max.-Flux-Residual
  Residual-Control   Outer-Iter.   Inner-Iter.     Column Row Layer    Maximum-Head-Change  Column Row Layer    Maximum-Flux-Residual          L2-NORM 
          0                 1           2             4    7     1       0.1609064680E-01       4    7    1         0.8448101010E+00      0.1974296952E+01
          0                 2           2             4    7     1      -0.1565186522E-02       4    7    1        -0.8448137015E-01      0.1974299541E+00
          0                 3           1             4    7     1       0.1065833507E-03       4    7    1         0.5913695062E-02      0.1382009854E-01
          0                 4           1             4    7     1      -0.4241054655E-05       4    7    1        -0.2418704953E-03      0.5652485884E-03

    ------------------------------------------------
       NWT REQUIRED            4 OUTER ITERATIONS 
       AND A TOTAL OF          6 INNER ITERATIONS.
    ------------------------------------------------

 NO OUTPUT CONTROL FOR STRESS PERIOD   26   TIME STEP    7
 
 SOLVING FOR HEAD 
                                                   Max.-Head-Change                         Max.-Flux-Residual
  Residual-Control   Outer-Iter.   Inner-Iter.     Column Row Layer    Maximum-Head-Change  Column Row Layer    Maximum-Flux-Residual          L2-NORM 
          0                 1           2             4    7     1       0.1592451518E-01       4    7    1         0.8360432397E+00      0.1958428833E+01
          0                 2           2             4    7     1      -0.1549026325E-02       4    7    1        -0.8360467593E-01      0.1958431288E+00
          0                 3           1             4    7     1       0.1054829022E-03       4    7    1         0.5852326524E-02      0.1370901771E-01
          0                 4           1             4    7     1      -0.4197266793E-05       4    7    1        -0.2393605066E-03      0.5606966424E-03

    ------------------------------------------------
       NWT REQUIRED            4 OUTER ITERATIONS 
       AND A TOTAL OF          6 INNER ITERATIONS.
    ------------------------------------------------

 NO OUTPUT CONTROL FOR STRESS PERIOD   26   TIME STEP    8
 
 SOLVING FOR HEAD 
                                                   Max.-Head-Change                         Max.-Flux-Residual
  Residual-Control   Outer-Iter.   Inner-Iter.     Column Row Layer    Maximum-Head-Change  Column Row Layer    Maximum-Flux-Residual          L2-NORM 
          0                 1           2             4    7     1       0.1576086838E-01       4    7    1         0.8274075629E+00      0.1942783990E+01
          0                 2           2             4    7     1      -0.1533107837E-02       4    7    1        -0.8274110040E-01      0.1942786282E+00
          0                 3           1             4    7     1       0.1043989132E-03       4    7    1         0.5791876280E-02      0.1359950490E-01
          0                 4           1             4    7     1      -0.4154133777E-05       4    7    1        -0.2368880880E-03      0.5562196181E-03

    ------------------------------------------------
       NWT REQUIRED            4 OUTER ITERATIONS 
       AND A TOTAL OF          6 INNER ITERATIONS.
    ------------------------------------------------

 NO OUTPUT CONTROL FOR STRESS PERIOD   26   TIME STEP    9
 
 SOLVING FOR HEAD 
                                                   Max.-Head-Change                         Max.-Flux-Residual
  Residual-Control   Outer-Iter.   Inner-Iter.     Column Row Layer    Maximum-Head-Change  Column Row Layer    Maximum-Flux-Residual          L2-NORM 
          0                 1           2             4    7     1       0.1559979324E-01       4    7    1         0.8189080323E+00      0.1927369803E+01
          0                 2           2             4    7     1      -0.1517439504E-02       4    7    1        -0.8189113968E-01      0.1927371744E+00
          0                 3           1             4    7     1       0.1033319589E-03       4    7    1         0.5732379071E-02      0.1349159317E-01
          0                 4           1             4    7     1      -0.4111678632E-05       4    7    1        -0.2344546515E-03      0.5518037331E-03

    ------------------------------------------------
       NWT REQUIRED            4 OUTER ITERATIONS 
       AND A TOTAL OF          6 INNER ITERATIONS.
    ------------------------------------------------

 NO OUTPUT CONTROL FOR STRESS PERIOD   26   TIME STEP   10
 
 SOLVING FOR HEAD 
                                                   Max.-Head-Change                         Max.-Flux-Residual
  Residual-Control   Outer-Iter.   Inner-Iter.     Column Row Layer    Maximum-Head-Change  Column Row Layer    Maximum-Flux-Residual          L2-NORM 
          0                 1           2             4    7     1       0.1544110343E-01       4    7    1         0.8105345263E+00      0.1912174623E+01
          0                 2           2             4    7     1      -0.1502003201E-02       4    7    1        -0.8105378160E-01      0.1912176916E+00
          0                 3           1             4    7     1       0.1022808051E-03       4    7    1         0.5673764060E-02      0.1338531183E-01
          0                 4           1             4    7     1      -0.4069852084E-05       4    7    1        -0.2320572908E-03      0.5474600424E-03

    ------------------------------------------------
       NWT REQUIRED            4 OUTER ITERATIONS 
       AND A TOTAL OF          6 INNER ITERATIONS.
    ------------------------------------------------

 NO OUTPUT CONTROL FOR STRESS PERIOD   26   TIME STEP   11
 
 SOLVING FOR HEAD 
                                                   Max.-Head-Change                         Max.-Flux-Residual
  Residual-Control   Outer-Iter.   Inner-Iter.     Column Row Layer    Maximum-Head-Change  Column Row Layer    Maximum-Flux-Residual          L2-NORM 
          0                 1           2             4    7     1       0.1528488813E-01       4    7    1         0.8022920082E+00      0.1897193904E+01
          0                 2           2             4    7     1      -0.1486807604E-02       4    7    1        -0.8022952250E-01      0.1897195991E+00
          0                 3           1             4    7     1       0.1012460419E-03       4    7    1         0.5616065941E-02      0.1328039457E-01
          0                 4           1             4    7     1      -0.4028678195E-05       4    7    1        -0.2296974392E-03      0.5431689776E-03

    ------------------------------------------------
       NWT REQUIRED            4 OUTER ITERATIONS 
       AND A TOTAL OF          6 INNER ITERATIONS.
    ------------------------------------------------

 NO OUTPUT CONTROL FOR STRESS PERIOD   26   TIME STEP   12
 
 SOLVING FOR HEAD 
                                                   Max.-Head-Change                         Max.-Flux-Residual
  Residual-Control   Outer-Iter.   Inner-Iter.     Column Row Layer    Maximum-Head-Change  Column Row Layer    Maximum-Flux-Residual          L2-NORM 
          0                 1           2             4    7     1       0.1513109780E-01       4    7    1         0.7941777903E+00      0.1882434424E+01
          0                 2           2             4    7     1      -0.1471847894E-02       4    7    1        -0.7941809362E-01      0.1882435593E+00
          0                 3           1             4    7     1       0.1002273420E-03       4    7    1         0.5559265975E-02      0.1317703821E-01
          0                 4           1             4    7     1      -0.3988142688E-05       4    7    1        -0.2273742959E-03      0.5389493957E-03

    ------------------------------------------------
       NWT REQUIRED            4 OUTER ITERATIONS 
       AND A TOTAL OF          6 INNER ITERATIONS.
    ------------------------------------------------

 NO OUTPUT CONTROL FOR STRESS PERIOD   26   TIME STEP   13
 
 SOLVING FOR HEAD 
                                                   Max.-Head-Change                         Max.-Flux-Residual
  Residual-Control   Outer-Iter.   Inner-Iter.     Column Row Layer    Maximum-Head-Change  Column Row Layer    Maximum-Flux-Residual          L2-NORM 
          0                 1           2             4    7     1       0.1497954694E-01       4    7    1         0.7861819909E+00      0.1867870405E+01
          0                 2           2             4    7     1      -0.1457106024E-02       4    7    1        -0.7861850673E-01      0.1867870953E+00
          0                 3           1             4    7     1       0.9922347673E-04       4    7    1         0.5503294935E-02      0.1307508312E-01

    ------------------------------------------------
       NWT REQUIRED            3 OUTER ITERATIONS 
       AND A TOTAL OF          5 INNER ITERATIONS.
    ------------------------------------------------

 NO OUTPUT CONTROL FOR STRESS PERIOD   26   TIME STEP   14
 
 SOLVING FOR HEAD 
                                                   Max.-Head-Change                         Max.-Flux-Residual
  Residual-Control   Outer-Iter.   Inner-Iter.     Column Row Layer    Maximum-Head-Change  Column Row Layer    Maximum-Flux-Residual          L2-NORM 
          0                 1           2             4    7     1       0.1483027464E-01       4    7    1         0.7783068618E+00      0.1853510355E+01
          0                 2           2             4    7     1      -0.1442585799E-02       4    7    1        -0.7783098707E-01      0.1853510936E+00
          0                 3           1             4    7     1       0.9823470384E-04       4    7    1         0.5448168597E-02      0.1297456273E-01

    ------------------------------------------------
       NWT REQUIRED            3 OUTER ITERATIONS 
       AND A TOTAL OF          5 INNER ITERATIONS.
    ------------------------------------------------

 NO OUTPUT CONTROL FOR STRESS PERIOD   26   TIME STEP   15
 
 SOLVING FOR HEAD 
                                                   Max.-Head-Change                         Max.-Flux-Residual
  Residual-Control   Outer-Iter.   Inner-Iter.     Column Row Layer    Maximum-Head-Change  Column Row Layer    Maximum-Flux-Residual          L2-NORM 
          0                 1           2             4    7     1       0.1468328937E-01       4    7    1         0.7705526676E+00      0.1839350005E+01
          0                 2           2             4    7     1      -0.1428288042E-02       4    7    1        -0.7705556104E-01      0.1839350257E+00
          0                 3           1             4    7     1       0.9726108077E-04       4    7    1         0.5393888813E-02      0.1287543807E-01

    ------------------------------------------------
       NWT REQUIRED            3 OUTER ITERATIONS 
       AND A TOTAL OF          5 INNER ITERATIONS.
    ------------------------------------------------

 NO OUTPUT CONTROL FOR STRESS PERIOD   26   TIME STEP   16
 
 SOLVING FOR HEAD 
                                                   Max.-Head-Change                         Max.-Flux-Residual
  Residual-Control   Outer-Iter.   Inner-Iter.     Column Row Layer    Maximum-Head-Change  Column Row Layer    Maximum-Flux-Residual          L2-NORM 
          0                 1           2             4    7     1       0.1453854124E-01       4    7    1         0.7629170520E+00      0.1825385026E+01
          0                 2           2             4    7     1      -0.1414207901E-02       4    7    1        -0.7629199307E-01      0.1825385042E+00
          0                 3           1             4    7     1       0.9630227652E-04       4    7    1         0.5340439111E-02      0.1277767790E-01

    ------------------------------------------------
       NWT REQUIRED            3 OUTER ITERATIONS 
       AND A TOTAL OF          5 INNER ITERATIONS.
    ------------------------------------------------

 NO OUTPUT CONTROL FOR STRESS PERIOD   26   TIME STEP   17
 
 SOLVING FOR HEAD 
                                                   Max.-Head-Change                         Max.-Flux-Residual
  Residual-Control   Outer-Iter.   Inner-Iter.     Column Row Layer    Maximum-Head-Change  Column Row Layer    Maximum-Flux-Residual          L2-NORM 
          0                 1           2             4    7     1       0.1439585523E-01       4    7    1         0.7553901144E+00      0.1811616642E+01
          0                 2           2             4    7     1      -0.1400328350E-02       4    7    1        -0.7553929303E-01      0.1811616303E+00
          0                 3           1             4    7     1       0.9535713139E-04       4    7    1         0.5287750140E-02      0.1268128943E-01

    ------------------------------------------------
       NWT REQUIRED            3 OUTER ITERATIONS 
       AND A TOTAL OF          5 INNER ITERATIONS.
    ------------------------------------------------

 NO OUTPUT CONTROL FOR STRESS PERIOD   26   TIME STEP   18
 
 SOLVING FOR HEAD 
                                                   Max.-Head-Change                         Max.-Flux-Residual
  Residual-Control   Outer-Iter.   Inner-Iter.     Column Row Layer    Maximum-Head-Change  Column Row Layer    Maximum-Flux-Residual          L2-NORM 
          0                 1           2             4    7     1       0.1425545875E-01       4    7    1         0.7479847222E+00      0.1798036225E+01
          0                 2           2             4    7     1      -0.1386671510E-02       4    7    1        -0.7479874771E-01      0.1798035601E+00
          0                 3           1             4    7     1       0.9442715217E-04       4    7    1         0.5235912006E-02      0.1258622103E-01

    ------------------------------------------------
       NWT REQUIRED            3 OUTER ITERATIONS 
       AND A TOTAL OF          5 INNER ITERATIONS.
    ------------------------------------------------

 NO OUTPUT CONTROL FOR STRESS PERIOD   26   TIME STEP   19
 
 SOLVING FOR HEAD 
                                                   Max.-Head-Change                         Max.-Flux-Residual
  Residual-Control   Outer-Iter.   Inner-Iter.     Column Row Layer    Maximum-Head-Change  Column Row Layer    Maximum-Flux-Residual          L2-NORM 
          0                 1           2             4    7     1       0.1411703408E-01       4    7    1         0.7406834097E+00      0.1784641012E+01
          0                 2           2             4    7     1      -0.1373206475E-02       4    7    1        -0.7406861049E-01      0.1784640125E+00
          0                 3           1             4    7     1       0.9351023365E-04       4    7    1         0.5184802414E-02      0.1249245051E-01

    ------------------------------------------------
       NWT REQUIRED            3 OUTER ITERATIONS 
       AND A TOTAL OF          5 INNER ITERATIONS.
    ------------------------------------------------

 NO OUTPUT CONTROL FOR STRESS PERIOD   26   TIME STEP   20
 
 SOLVING FOR HEAD 
                                                   Max.-Head-Change                         Max.-Flux-Residual
  Residual-Control   Outer-Iter.   Inner-Iter.     Column Row Layer    Maximum-Head-Change  Column Row Layer    Maximum-Flux-Residual          L2-NORM 
          0                 1           2             4    7     1       0.1398080798E-01       4    7    1         0.7334989608E+00      0.1771425116E+01
          0                 2           2             4    7     1      -0.1360702766E-02       4    7    1        -0.7341111551E-01      0.1771606501E+00
          0                 3           1             4    7     1       0.9265877481E-04       4    7    1         0.5138777559E-02      0.1240122423E-01

    ------------------------------------------------
       NWT REQUIRED            3 OUTER ITERATIONS 
       AND A TOTAL OF          5 INNER ITERATIONS.
    ------------------------------------------------

 NO OUTPUT CONTROL FOR STRESS PERIOD   26   TIME STEP   21
 
 SOLVING FOR HEAD 
                                                   Max.-Head-Change                         Max.-Flux-Residual
  Residual-Control   Outer-Iter.   Inner-Iter.     Column Row Layer    Maximum-Head-Change  Column Row Layer    Maximum-Flux-Residual          L2-NORM 
          0                 1           2             4    7     1       0.1384243558E-01       4    7    1         0.7263739722E+00      0.1758378971E+01
          0                 2           2             4    7     1      -0.1346495697E-02       4    7    1        -0.7263767892E-01      0.1758378017E+00
          0                 3           1             4    7     1       0.9169132725E-04       4    7    1         0.5084637057E-02      0.1230862525E-01

    ------------------------------------------------
       NWT REQUIRED            3 OUTER ITERATIONS 
       AND A TOTAL OF          5 INNER ITERATIONS.
    ------------------------------------------------

 NO OUTPUT CONTROL FOR STRESS PERIOD   26   TIME STEP   22
 
 SOLVING FOR HEAD 
                                                   Max.-Head-Change                         Max.-Flux-Residual
  Residual-Control   Outer-Iter.   Inner-Iter.     Column Row Layer    Maximum-Head-Change  Column Row Layer    Maximum-Flux-Residual          L2-NORM 
          0                 1           2             4    7     1       0.1370707831E-01       4    7    1         0.7192247507E+00      0.1745459843E+01
          0                 2           2             4    7     1      -0.1333329024E-02       4    7    1        -0.7192274987E-01      0.1745458368E+00
          0                 3           1             4    7     1       0.9079472642E-04       4    7    1         0.5034592059E-02      0.1221817651E-01

    ------------------------------------------------
       NWT REQUIRED            3 OUTER ITERATIONS 
       AND A TOTAL OF          5 INNER ITERATIONS.
    ------------------------------------------------

 NO OUTPUT CONTROL FOR STRESS PERIOD   26   TIME STEP   23
 
 SOLVING FOR HEAD 
                                                   Max.-Head-Change                         Max.-Flux-Residual
  Residual-Control   Outer-Iter.   Inner-Iter.     Column Row Layer    Maximum-Head-Change  Column Row Layer    Maximum-Flux-Residual          L2-NORM 
          0                 1           2             4    7     1       0.1357391068E-01       4    7    1         0.7121920286E+00      0.1732723325E+01
          0                 2           2             4    7     1      -0.1320375346E-02       4    7    1        -0.7121947098E-01      0.1732721666E+00
          0                 3           1             4    7     1       0.8991262999E-04       4    7    1         0.4985362583E-02      0.1212902170E-01

    ------------------------------------------------
       NWT REQUIRED            3 OUTER ITERATIONS 
       AND A TOTAL OF          5 INNER ITERATIONS.
    ------------------------------------------------

 NO OUTPUT CONTROL FOR STRESS PERIOD   26   TIME STEP   24
 
 SOLVING FOR HEAD 
                                                   Max.-Head-Change                         Max.-Flux-Residual
  Residual-Control   Outer-Iter.   Inner-Iter.     Column Row Layer    Maximum-Head-Change  Column Row Layer    Maximum-Flux-Residual          L2-NORM 
          0                 1           2             4    7     1       0.1344300956E-01       4    7    1         0.7052801511E+00      0.1720159102E+01
          0                 2           2             4    7     1      -0.1307642141E-02       4    7    1        -0.7052827676E-01      0.1720157190E+00
          0                 3           1             4    7     1       0.8904554693E-04       4    7    1         0.4936979038E-02      0.1204106805E-01

    ------------------------------------------------
       NWT REQUIRED            3 OUTER ITERATIONS 
       AND A TOTAL OF          5 INNER ITERATIONS.
    ------------------------------------------------

 NO OUTPUT CONTROL FOR STRESS PERIOD   26   TIME STEP   25
 
 SOLVING FOR HEAD 
                                                   Max.-Head-Change                         Max.-Flux-Residual
  Residual-Control   Outer-Iter.   Inner-Iter.     Column Row Layer    Maximum-Head-Change  Column Row Layer    Maximum-Flux-Residual          L2-NORM 
          0                 1           2             4    7     1       0.1331404757E-01       4    7    1         0.6984711569E+00      0.1707759537E+01
          0                 2           2             4    7     1      -0.1295097564E-02       4    7    1        -0.6984737107E-01      0.1707757478E+00
          0                 3           1             4    7     1       0.8819130883E-04       4    7    1         0.4889315684E-02      0.1195427169E-01

    ------------------------------------------------
       NWT REQUIRED            3 OUTER ITERATIONS 
       AND A TOTAL OF          5 INNER ITERATIONS.
    ------------------------------------------------

 NO OUTPUT CONTROL FOR STRESS PERIOD   26   TIME STEP   26
 
 SOLVING FOR HEAD 
                                                   Max.-Head-Change                         Max.-Flux-Residual
  Residual-Control   Outer-Iter.   Inner-Iter.     Column Row Layer    Maximum-Head-Change  Column Row Layer    Maximum-Flux-Residual          L2-NORM 
          0                 1           2             4    7     1       0.1318711461E-01       4    7    1         0.6917700189E+00      0.1695525695E+01
          0                 2           2             4    7     1      -0.1282750358E-02       4    7    1        -0.6917725118E-01      0.1695523319E+00
          0                 3           1             4    7     1       0.8735051035E-04       4    7    1         0.4842407310E-02      0.1186862625E-01

    ------------------------------------------------
       NWT REQUIRED            3 OUTER ITERATIONS 
       AND A TOTAL OF          5 INNER ITERATIONS.
    ------------------------------------------------

 NO OUTPUT CONTROL FOR STRESS PERIOD   26   TIME STEP   27
 
 SOLVING FOR HEAD 
                                                   Max.-Head-Change                         Max.-Flux-Residual
  Residual-Control   Outer-Iter.   Inner-Iter.     Column Row Layer    Maximum-Head-Change  Column Row Layer    Maximum-Flux-Residual          L2-NORM 
          0                 1           2             4    7     1       0.1306229325E-01       4    7    1         0.6851813985E+00      0.1683456019E+01
          0                 2           2             4    7     1      -0.1270608556E-02       4    7    1        -0.6851838326E-01      0.1683453440E+00
          0                 3           1             4    7     1       0.8652369949E-04       4    7    1         0.4796286592E-02      0.1178413698E-01

    ------------------------------------------------
       NWT REQUIRED            3 OUTER ITERATIONS 
       AND A TOTAL OF          5 INNER ITERATIONS.
    ------------------------------------------------

 NO OUTPUT CONTROL FOR STRESS PERIOD   26   TIME STEP   28
 
 SOLVING FOR HEAD 
                                                   Max.-Head-Change                         Max.-Flux-Residual
  Residual-Control   Outer-Iter.   Inner-Iter.     Column Row Layer    Maximum-Head-Change  Column Row Layer    Maximum-Flux-Residual          L2-NORM 
          0                 1           2             4    7     1       0.1293926123E-01       4    7    1         0.6786876286E+00      0.1671544324E+01
          0                 2           2             4    7     1      -0.1258640810E-02       4    7    1        -0.6786900053E-01      0.1671541708E+00
          0                 3           1             4    7     1       0.8570874123E-04       4    7    1         0.4750829841E-02      0.1170075780E-01

    ------------------------------------------------
       NWT REQUIRED            3 OUTER ITERATIONS 
       AND A TOTAL OF          5 INNER ITERATIONS.
    ------------------------------------------------

 NO OUTPUT CONTROL FOR STRESS PERIOD   26   TIME STEP   29
 
 SOLVING FOR HEAD 
                                                   Max.-Head-Change                         Max.-Flux-Residual
  Residual-Control   Outer-Iter.   Inner-Iter.     Column Row Layer    Maximum-Head-Change  Column Row Layer    Maximum-Flux-Residual          L2-NORM 
          0                 1           2             4    7     1       0.1281824579E-01       4    7    1         0.6723012652E+00      0.1659791018E+01
          0                 2           2             4    7     1      -0.1246869226E-02       4    7    1        -0.6723035865E-01      0.1659788313E+00
          0                 3           1             4    7     1       0.8490714070E-04       4    7    1         0.4706124928E-02      0.1161848215E-01

    ------------------------------------------------
       NWT REQUIRED            3 OUTER ITERATIONS 
       AND A TOTAL OF          5 INNER ITERATIONS.
    ------------------------------------------------

 NO OUTPUT CONTROL FOR STRESS PERIOD   26   TIME STEP   30



 STREAM LISTING     PERIOD     26   STEP       30

 LAYER ROW COL. STREAM  RCH.  FLOW INTO     FLOW TO   FLOW OUT OF   OVRLND.     DIRECT     STREAM       STREAM     STREAM     STREAM   STREAMBED  STREAMBED
                SEG.NO.  NO.  STRM. RCH.    AQUIFER    STRM. RCH.    RUNOFF     PRECIP       ET          HEAD       DEPTH      WIDTH   CONDCTNC.   GRADIENT

   1    1    1     1     1    8.2501E+00  1.3178E-01   8.1183E+00  0.000E+00  0.000E+00  0.000E+00  1.09389E+03  8.424E-01  7.622E+00  3.430E-02  1.281E+00
   1    2    2     1     2    8.1183E+00  2.0241E-01   7.9159E+00  0.000E+00  0.000E+00  0.000E+00  1.08890E+03  8.367E-01  7.537E+00  5.276E-02  1.279E+00
   1    3    3     1     3    7.9159E+00  1.7099E-01   7.7449E+00  0.000E+00  0.000E+00  0.000E+00  1.08325E+03  8.302E-01  7.440E+00  4.464E-02  1.277E+00
   1    3    4     1     4    7.7449E+00  1.5612E-01   7.5888E+00  0.000E+00  0.000E+00  0.000E+00  1.07823E+03  8.244E-01  7.355E+00  4.082E-02  1.275E+00
   1    4    5     2     1    5.5888E+00  2.7178E-01   5.3170E+00  0.000E+00  0.000E+00  0.000E+00  1.07242E+03  4.843E-01  1.200E+01  7.800E-02  1.161E+00
   1    5    6     2     2    5.3170E+00  2.0828E-01   5.1088E+00  0.000E+00  0.000E+00  0.000E+00  1.06698E+03  4.714E-01  1.200E+01  6.000E-02  1.157E+00
   1    6    6     2     3    5.1088E+00  2.0760E-01   4.9012E+00  0.000E+00  0.000E+00  0.000E+00  1.06225E+03  4.600E-01  1.200E+01  6.000E-02  1.153E+00
   1    7    6     2     4    4.9012E+00  2.0691E-01   4.6943E+00  0.000E+00  0.000E+00  0.000E+00  1.05752E+03  4.485E-01  1.200E+01  6.000E-02  1.150E+00
   1    8    6     2     5    4.6943E+00  2.0621E-01   4.4880E+00  0.000E+00  0.000E+00  0.000E+00  1.05280E+03  4.368E-01  1.200E+01  6.000E-02  1.146E+00
   1    3    5     3     1    2.0000E+00  2.8252E-01   1.7175E+00  0.000E+00  0.000E+00  0.000E+00  1.07555E+03  1.909E+00  9.636E+00  7.227E-02  1.955E+00
   1    3    6     3     2    1.7175E+00  2.4905E-01   1.4684E+00  0.000E+00  0.000E+00  0.000E+00  1.07264E+03  1.727E+00  8.909E+00  6.682E-02  1.864E+00
   1    3    7     3     3    1.4684E+00  1.9718E-01   1.2712E+00  0.000E+00  0.000E+00  0.000E+00  1.06987E+03  1.555E+00  8.218E+00  5.547E-02  1.777E+00
   1    4    8     3     4    1.2712E+00  2.2567E-01   1.0456E+00  0.000E+00  0.000E+00  0.000E+00  1.06682E+03  1.364E+00  7.455E+00  6.709E-02  1.682E+00
   1    5    8     3     5    1.0456E+00  1.5790E-01   8.8768E-01  0.000E+00  0.000E+00  0.000E+00  1.06362E+03  1.164E+00  6.655E+00  4.991E-02  1.582E+00
   1    6    8     3     6    8.8768E-01  5.5980E-02   8.3170E-01  0.000E+00  0.000E+00  0.000E+00  1.06158E+03  1.036E+00  6.145E+00  1.844E-02  1.518E+00
   1    5   10     4     1    1.0000E+01  9.0919E-02   9.9091E+00  0.000E+00  0.000E+00  0.000E+00  1.07836E+03  6.368E-01  1.000E+01  2.500E-02  1.212E+00
   1    5    9     4     2    9.9091E+00  1.8158E-01   9.7275E+00  0.000E+00  0.000E+00  0.000E+00  1.07154E+03  6.315E-01  1.000E+01  5.000E-02  1.211E+00
   1    6    8     4     3    9.7275E+00  1.2689E-01   9.6006E+00  0.000E+00  0.000E+00  0.000E+00  1.06381E+03  6.256E-01  1.000E+01  3.500E-02  1.209E+00
   1    6    8     5     1    1.0432E+01  2.2686E-01   1.0205E+01  0.000E+00  0.000E+00  0.000E+00  1.05868E+03  6.790E-01  1.542E+01  6.166E-02  1.226E+00
   1    7    7     5     2    1.0205E+01  2.7894E-01   9.9265E+00  0.000E+00  0.000E+00  0.000E+00  1.05417E+03  6.732E-01  1.519E+01  7.594E-02  1.224E+00
   1    8    7     5     3    9.9265E+00  1.9221E-01   9.7343E+00  0.000E+00  0.000E+00  0.000E+00  1.04992E+03  6.676E-01  1.497E+01  5.241E-02  1.223E+00
   1    8    6     5     4    9.7343E+00  1.3577E-01   9.5985E+00  0.000E+00  0.000E+00  0.000E+00  1.04691E+03  6.637E-01  1.482E+01  3.706E-02  1.221E+00
   1    9    6     6     1    1.4087E+01  2.3167E-01   1.3855E+01  0.000E+00  0.000E+00  0.000E+00  1.04359E+03  8.612E-01  1.200E+01  6.000E-02  1.287E+00
   1   10    7     6     2    1.3855E+01  2.3116E-01   1.3624E+01  0.000E+00  0.000E+00  0.000E+00  1.03903E+03  8.526E-01  1.200E+01  6.000E-02  1.284E+00
   1   11    7     6     3    1.3624E+01  2.3064E-01   1.3393E+01  0.000E+00  0.000E+00  0.000E+00  1.03448E+03  8.440E-01  1.200E+01  6.000E-02  1.281E+00
   1   12    7     6     4    1.3393E+01  2.3012E-01   1.3163E+01  0.000E+00  0.000E+00  0.000E+00  1.02993E+03  8.353E-01  1.200E+01  6.000E-02  1.278E+00
   1   13    7     6     5    1.3163E+01  3.2003E-03   1.3160E+01  0.000E+00  0.000E+00  0.000E+00  1.02674E+03  8.309E-01  1.200E+01  2.400E-02  4.445E-02
   1   14    9     7     1    1.5000E+02  1.3821E+00   1.4862E+02  0.000E+00  0.000E+00  0.000E+00  1.03987E+03  2.288E+00  5.529E+01  5.593E-01  8.237E-01
   1   13    8     7     2    1.4862E+02  1.9826E+00   1.4664E+02  0.000E+00  0.000E+00  0.000E+00  1.03478E+03  2.279E+00  5.525E+01  6.147E-01  1.075E+00
   1   13    7     7     3    1.4664E+02  1.7206E+00   1.4491E+02  0.000E+00  0.000E+00  0.000E+00  1.02969E+03  2.269E+00  5.521E+01  5.584E-01  1.027E+00
   1   13    6     8     1    1.5807E+02  1.1033E+00   1.5697E+02  0.000E+00  0.000E+00  0.000E+00  1.02474E+03  2.869E+00  4.160E+01  4.239E-01  8.675E-01
   1   13    5     8     2    1.5697E+02  3.5600E-01   1.5662E+02  0.000E+00  0.000E+00  0.000E+00  1.01849E+03  2.864E+00  4.153E+01  4.232E-01  2.804E-01
   1   13    4     8     3    1.5662E+02 -1.8034E+00   1.5842E+02  0.000E+00  0.000E+00  0.000E+00  1.01224E+03  2.869E+00  4.160E+01  4.239E+00 -1.418E-01
   1   13    3     8     4    1.5842E+02 -3.3361E+00   1.6175E+02  0.000E+00  0.000E+00  0.000E+00  1.00601E+03  2.886E+00  4.185E+01  4.265E+00 -2.607E-01
   1   13    2     8     5    1.6175E+02 -2.5014E+00   1.6426E+02  0.000E+00  0.000E+00  0.000E+00  9.99781E+02  2.906E+00  4.214E+01  4.294E+00 -1.942E-01
   1   13    1     8     6    1.6426E+02 -1.9591E+00   1.6622E+02  0.000E+00  0.000E+00  0.000E+00  9.94796E+02  2.921E+00  4.235E+01  2.590E+00 -2.522E-01
   1    8    6     9     1    0.0000E+00  0.0000E+00   0.0000E+00  0.000E+00  0.000E+00  0.000E+00  1.07875E+03  0.000E+00  4.000E+00  0.000E+00  1.000E+00
   1    8    5     9     2    0.0000E+00  0.0000E+00   0.0000E+00  0.000E+00  0.000E+00  0.000E+00  1.07825E+03  0.000E+00  4.000E+00  0.000E+00  1.000E+00





UNSATURATED ZONE PACKAGE VOLUMETRIC BUDGET FOR  TIME STEP    30 STRESS PERIOD   26
  ------------------------------------------------------------------------------



     CUMULATIVE VOLUMES      L**3       RATES FOR THIS TIME STEP      L**3/T
     ------------------                 ------------------------

           IN:                                      IN:
           ---                                      ---
        INFILTRATION =  1097293306.0210          INFILTRATION =           0.8475

          OUT:                                     OUT:
          ----                                     ----
              UZF ET =   862233220.6364                UZF ET =           0.7500
        UZF RECHARGE =       73224.0000          UZF RECHARGE =       0.0000E+00

            IN - OUT =   234986861.3846              IN - OUT =       9.7500E-02

          STORAGE:                                 STORAGE:
          --------                                 --------
      STORAGE CHANGE =   234987069.2151        STORAGE CHANGE =       9.7500E-02

 PERCENT DISCREPANCY IS DIFFERENCE BETWEEN IN-OUT MINUS CHANGE IN STORAGE
 DIVIDED BY THE AVERAGE OF IN AND OUT TIMES 100

 PERCENT DISCREPANCY =          -0.00     PERCENT DISCREPANCY =           0.00






1
  VOLUMETRIC BUDGET FOR AGRICULTURAL FIELDS AT  END OF TIME STEP   30, STRESS PERIOD  26
  ------------------------------------------------------------------------------

     CUMULATIVE VOLUMES      L**3       RATES FOR THIS TIME STEP      L**3/T
     ------------------                 ------------------------

           IN:                                      IN:
           ---                                      ---
               AG WELLS  =   666412096.0000                 AG WELLS  =           0.0000
      DIVERSION SEGMENTS =   375163232.0000        DIVERSION SEGMENTS =           0.0000
       IRRIGATION PONDS  =           0.0000         IRRIGATION PONDS  =           0.0000
           GW IRRIGATION =           0.0000             GW IRRIGATION =           0.0000
           SW IRRIGATION =           0.0000             SW IRRIGATION =           0.0000
        SYSTEM LOSSES GW =           0.0000          SYSTEM LOSSES GW =           0.0000
        SYSTEM LOSSES SW =           0.0000          SYSTEM LOSSES SW =           0.0000

                TOTAL IN =  1041575296.0000                  TOTAL IN =           0.0000

          OUT:                                     OUT:
          ----                                     ----
               AG WELLS  =           0.0000                 AG WELLS  =           0.0000
      DIVERSION SEGMENTS =           0.0000        DIVERSION SEGMENTS =           0.0000
       IRRIGATION PONDS  =           0.0000         IRRIGATION PONDS  =           0.0000
           GW IRRIGATION =   666412096.0000             GW IRRIGATION =           0.0000
           SW IRRIGATION =   375170880.0000             SW IRRIGATION =           0.0000
        SYSTEM LOSSES GW =           0.0000          SYSTEM LOSSES GW =           0.0000
        SYSTEM LOSSES SW =           0.0000          SYSTEM LOSSES SW =           0.0000

               TOTAL OUT =  1041582976.0000                 TOTAL OUT =           0.0000

                IN - OUT =       -7680.0000                  IN - OUT =           0.0000

     PERCENT DISCREPANCY =          -0.00         PERCENT DISCREPANCY =           0.00



1
  VOLUMETRIC BUDGET FOR ENTIRE MODEL AT END OF TIME STEP   30, STRESS PERIOD  26
  ------------------------------------------------------------------------------

     CUMULATIVE VOLUMES      L**3       RATES FOR THIS TIME STEP      L**3/T
     ------------------                 ------------------------

           IN:                                      IN:
           ---                                      ---
             STORAGE     =  1034323520.0000               STORAGE     =           4.1335
       CONSTANT HEAD     =           0.0000         CONSTANT HEAD     =           0.0000
     HEAD DEP BOUNDS     =    18972586.0000       HEAD DEP BOUNDS     =           0.2889
      STREAM LEAKAGE     =   774673600.0000        STREAM LEAKAGE     =          11.6350
        UZF RECHARGE     =       73223.9531          UZF RECHARGE     =           0.0000
               GW ET     =           0.0000                 GW ET     =           0.0000
     SURFACE LEAKAGE     =           0.0000       SURFACE LEAKAGE     =           0.0000
           AG WELLS      =           0.0000             AG WELLS      =           0.0000

                TOTAL IN =  1828043008.0000                  TOTAL IN =          16.0573

          OUT:                                     OUT:
          ----                                     ----
             STORAGE     =   479400192.0000               STORAGE     =           6.1710
       CONSTANT HEAD     =           0.0000         CONSTANT HEAD     =           0.0000
     HEAD DEP BOUNDS     =    18945548.0000       HEAD DEP BOUNDS     =           0.2870
      STREAM LEAKAGE     =   663289216.0000        STREAM LEAKAGE     =           9.6000
        UZF RECHARGE     =           0.0000          UZF RECHARGE     =           0.0000
               GW ET     =           0.0000                 GW ET     =           0.0000
     SURFACE LEAKAGE     =           0.0000       SURFACE LEAKAGE     =           0.0000
           AG WELLS      =   666412096.0000             AG WELLS      =           0.0000

               TOTAL OUT =  1828047104.0000                 TOTAL OUT =          16.0579

                IN - OUT =       -4096.0000                  IN - OUT =      -5.7983E-04

     PERCENT DISCREPANCY =          -0.00         PERCENT DISCREPANCY =          -0.00






         TIME SUMMARY AT END OF TIME STEP   30 IN STRESS PERIOD   26
                    SECONDS     MINUTES      HOURS       DAYS        YEARS
                    -----------------------------------------------------------
   TIME STEP LENGTH  87667.      1461.1      24.352      1.0147     2.77799E-03
 STRESS PERIOD TIME 2.63000E+06  43833.      730.56      30.440     8.33397E-02
         TOTAL TIME 6.58368E+07 1.09728E+06  18288.      762.00      2.0862    
1
1
                            STRESS PERIOD NO.   27, LENGTH =   2630000.    
                            -----------------------------------------------

                              NUMBER OF TIME STEPS =    30

                               MULTIPLIER FOR DELT =     1.000

                            INITIAL TIME STEP SIZE =   87666.66    

 REUSING NON-PARAMETER GHB CELLS FROM LAST STRESS PERIOD

      2 GHB CELLS

 REUSING STREAM SEGMENT DATA FROM LAST STRESS PERIOD



            AREAL INFILTRATION RATE
 READING ON UNIT   19 WITH FORMAT: (FREE)              

            1           2           3           4           5           6           7           8           9          10
 ........................................................................................................................
   1   1.0000E-10  2.0000E-10   0.000       0.000       0.000       0.000       0.000       0.000       0.000       0.000    
   2   2.0000E-10  1.0000E-10  2.0000E-10   0.000       0.000      8.0000E-10  8.0000E-10  5.0000E-10   0.000       0.000    
   3    0.000      5.0000E-10  1.0000E-10  1.0000E-10  8.0000E-10  8.0000E-10  5.0000E-10  5.0000E-10   0.000       0.000    
   4   8.0000E-10  5.0000E-10  1.0000E-10  1.0000E-10  1.0000E-10  1.0000E-10  1.0000E-10  1.0000E-10  2.0000E-10   0.000    
   5   8.0000E-10  5.0000E-10  1.0000E-10  1.0000E-10  1.0000E-10  1.0000E-10  1.0000E-10  1.0000E-10  1.0000E-10  1.0000E-10
   6   8.0000E-10  5.0000E-10  5.0000E-10  2.0000E-10  2.0000E-10  1.0000E-10  1.0000E-10  1.0000E-10  1.0000E-10  5.0000E-10
   7   8.0000E-10  5.0000E-10  5.0000E-10  2.0000E-10  2.0000E-10  1.0000E-10  1.0000E-10  2.0000E-10  2.0000E-10   0.000    
   8    0.000      5.0000E-10  5.0000E-10  2.0000E-10  2.0000E-10  1.0000E-10  1.0000E-10  2.0000E-10  5.0000E-10   0.000    
   9    0.000      5.0000E-10  5.0000E-10  2.0000E-10  2.0000E-10  1.0000E-10  1.0000E-10  2.0000E-10  5.0000E-10   0.000    
  10    0.000      5.0000E-10  5.0000E-10  2.0000E-10  2.0000E-10  1.0000E-10  1.0000E-10  2.0000E-10  5.0000E-10  8.0000E-10
  11    0.000      1.0000E-10  1.0000E-10  1.0000E-10  1.0000E-10  1.0000E-10  1.0000E-10  2.0000E-10  5.0000E-10   0.000    
  12   1.0000E-10  1.0000E-10  1.0000E-10  1.0000E-10  1.0000E-10  1.0000E-10  1.0000E-10  1.0000E-10  2.0000E-10   0.000    
  13   1.0000E-10  1.0000E-10  2.0000E-10  2.0000E-10  2.0000E-10  2.0000E-10  2.0000E-10  1.0000E-10  1.0000E-10   0.000    
  14    0.000      2.0000E-10  5.0000E-10  5.0000E-10  5.0000E-10  5.0000E-10  5.0000E-10  2.0000E-10  1.0000E-10   0.000    
  15    0.000       0.000      8.0000E-10  8.0000E-10  8.0000E-10  8.0000E-10   0.000       0.000       0.000       0.000    

                  ET RATE =  5.000000E-10

 USING ET EXTINCTION DEPTH FROM PREVIOUS STRESS PERIOD. CURRENT PERIOD IS:      27

 USING EXTINCTION WATER CONTENT FROM PREVIOUS STRESS PERIOD. CURRENT PERIOD IS:      27

 USING AIR ENTRY PRESSURE FROM PREVIOUS STRESS PERIOD. CURRENT PERIOD IS:      27

 USING ROOT PRESSURE HEAD FROM PREVIOUS STRESS PERIOD. CURRENT PERIOD IS:      27

 USING ROOT ACTIVITY FROM PREVIOUS STRESS PERIOD. CURRENT PERIOD IS:      27

 PROCESSING AG STRESS PERIOD DATA

 READING AG STRESS PERIOD DATA

 READING IRRIGATION SEGMENT

 READING IRRIGATION WELL

 READING SUPPLEMENTAL WELL

 NO IRRPOND OR REUSING IRRPOND DATA FROM LAST STRESS PERIOD

 END PROCESSING AG STRESS PERIOD DATA OPTIONS
 
 SOLVING FOR HEAD 
                                                   Max.-Head-Change                         Max.-Flux-Residual
  Residual-Control   Outer-Iter.   Inner-Iter.     Column Row Layer    Maximum-Head-Change  Column Row Layer    Maximum-Flux-Residual          L2-NORM 
          0                 1           2             4    7     1       0.1269906487E-01       4    7    1         0.6660121419E+00      0.1648192740E+01
          0                 2           2             4    7     1      -0.1235276093E-02       4    7    1        -0.6660144092E-01      0.1648189677E+00
          0                 3           1             4    7     1       0.8411769227E-04       4    7    1         0.4662100747E-02      0.1153727503E-01

    ------------------------------------------------
       NWT REQUIRED            3 OUTER ITERATIONS 
       AND A TOTAL OF          5 INNER ITERATIONS.
    ------------------------------------------------

 NO OUTPUT CONTROL FOR STRESS PERIOD   27   TIME STEP    1
 
 SOLVING FOR HEAD 
                                                   Max.-Head-Change                         Max.-Flux-Residual
  Residual-Control   Outer-Iter.   Inner-Iter.     Column Row Layer    Maximum-Head-Change  Column Row Layer    Maximum-Flux-Residual          L2-NORM 
          0                 1           2             4    7     1       0.1258168320E-01       4    7    1         0.6598181355E+00      0.1635711050E+01
          0                 2           2             4    7     1      -0.1223857979E-02       4    7    1        -0.6598203503E-01      0.1635703640E+00
          0                 3           1             4    7     1       0.8334016223E-04       4    7    1         0.4618742364E-02      0.1144980598E-01

    ------------------------------------------------
       NWT REQUIRED            3 OUTER ITERATIONS 
       AND A TOTAL OF          5 INNER ITERATIONS.
    ------------------------------------------------

 NO OUTPUT CONTROL FOR STRESS PERIOD   27   TIME STEP    2
 
 SOLVING FOR HEAD 
                                                   Max.-Head-Change                         Max.-Flux-Residual
  Residual-Control   Outer-Iter.   Inner-Iter.     Column Row Layer    Maximum-Head-Change  Column Row Layer    Maximum-Flux-Residual          L2-NORM 
          0                 1           2             4    7     1       0.1246626982E-01       4    7    1         0.6537247339E+00      0.1647412522E+01
          0                 2           2             4    7     1      -0.1212631328E-02       4    7    1        -0.6537268974E-01      0.1646234890E+00
          0                 3           1             4    7     1       0.8257566922E-04       4    7    1         0.4576088219E-02      0.1151288418E-01

    ------------------------------------------------
       NWT REQUIRED            3 OUTER ITERATIONS 
       AND A TOTAL OF          5 INNER ITERATIONS.
    ------------------------------------------------

 NO OUTPUT CONTROL FOR STRESS PERIOD   27   TIME STEP    3
 
 SOLVING FOR HEAD 
                                                   Max.-Head-Change                         Max.-Flux-Residual
  Residual-Control   Outer-Iter.   Inner-Iter.     Column Row Layer    Maximum-Head-Change  Column Row Layer    Maximum-Flux-Residual          L2-NORM 
          0                 1           2             4    7     1       0.1235263319E-01       4    7    1         0.6477260689E+00      0.1632940747E+01
          0                 2           2             4    7     1      -0.1201577509E-02       4    7    1        -0.6477281825E-01      0.1631937891E+00
          0                 3           1             4    7     1       0.8182294609E-04       4    7    1         0.4534097247E-02      0.1141452170E-01

    ------------------------------------------------
       NWT REQUIRED            3 OUTER ITERATIONS 
       AND A TOTAL OF          5 INNER ITERATIONS.
    ------------------------------------------------

 NO OUTPUT CONTROL FOR STRESS PERIOD   27   TIME STEP    4
 
 SOLVING FOR HEAD 
                                                   Max.-Head-Change                         Max.-Flux-Residual
  Residual-Control   Outer-Iter.   Inner-Iter.     Column Row Layer    Maximum-Head-Change  Column Row Layer    Maximum-Flux-Residual          L2-NORM 
          0                 1           2             4    7     1       0.1224072751E-01       4    7    1         0.6418195257E+00      0.1619127697E+01
          0                 2           2             4    7     1      -0.1190692065E-02       4    7    1        -0.6418215907E-01      0.1618270397E+00
          0                 3           1             4    7     1       0.8108168789E-04       4    7    1         0.4492751103E-02      0.1132004918E-01

    ------------------------------------------------
       NWT REQUIRED            3 OUTER ITERATIONS 
       AND A TOTAL OF          5 INNER ITERATIONS.
    ------------------------------------------------

 NO OUTPUT CONTROL FOR STRESS PERIOD   27   TIME STEP    5
 
 SOLVING FOR HEAD 
                                                   Max.-Head-Change                         Max.-Flux-Residual
  Residual-Control   Outer-Iter.   Inner-Iter.     Column Row Layer    Maximum-Head-Change  Column Row Layer    Maximum-Flux-Residual          L2-NORM 
          0                 1           2             4    7     1       0.1213051271E-01       4    7    1         0.6360027285E+00      0.1605898835E+01
          0                 2           2             4    7     1      -0.1179971102E-02       4    7    1        -0.6360047463E-01      0.1605171061E+00
          0                 3           1             4    7     1       0.8035163060E-04       4    7    1         0.4452033234E-02      0.1122958780E-01

    ------------------------------------------------
       NWT REQUIRED            3 OUTER ITERATIONS 
       AND A TOTAL OF          5 INNER ITERATIONS.
    ------------------------------------------------

 NO OUTPUT CONTROL FOR STRESS PERIOD   27   TIME STEP    6
 
 SOLVING FOR HEAD 
                                                   Max.-Head-Change                         Max.-Flux-Residual
  Residual-Control   Outer-Iter.   Inner-Iter.     Column Row Layer    Maximum-Head-Change  Column Row Layer    Maximum-Flux-Residual          L2-NORM 
          0                 1           2             4    7     1       0.1202207859E-01       4    7    1         0.6302809190E+00      0.1593171846E+01
          0                 2           2             4    7     1      -0.1169423351E-02       4    7    1        -0.6302828912E-01      0.1592551203E+00
          0                 3           1             4    7     1       0.7963336888E-04       4    7    1         0.4411980284E-02      0.1114214766E-01

    ------------------------------------------------
       NWT REQUIRED            3 OUTER ITERATIONS 
       AND A TOTAL OF          5 INNER ITERATIONS.
    ------------------------------------------------

 NO OUTPUT CONTROL FOR STRESS PERIOD   27   TIME STEP    7
 
 SOLVING FOR HEAD 
                                                   Max.-Head-Change                         Max.-Flux-Residual
  Residual-Control   Outer-Iter.   Inner-Iter.     Column Row Layer    Maximum-Head-Change  Column Row Layer    Maximum-Flux-Residual          L2-NORM 
          0                 1           2             4    7     1       0.1191524591E-01       4    7    1         0.6246441163E+00      0.1580894109E+01
          0                 2           2             4    7     1      -0.1159031379E-02       4    7    1        -0.6246460442E-01      0.1580364228E+00
          0                 3           1             4    7     1       0.7892571461E-04       4    7    1         0.4372522378E-02      0.1107284174E-01

    ------------------------------------------------
       NWT REQUIRED            3 OUTER ITERATIONS 
       AND A TOTAL OF          5 INNER ITERATIONS.
    ------------------------------------------------

 NO OUTPUT CONTROL FOR STRESS PERIOD   27   TIME STEP    8
 
 SOLVING FOR HEAD 
                                                   Max.-Head-Change                         Max.-Flux-Residual
  Residual-Control   Outer-Iter.   Inner-Iter.     Column Row Layer    Maximum-Head-Change  Column Row Layer    Maximum-Flux-Residual          L2-NORM 
          0                 1           2             4    7     1       0.1180997609E-01       4    7    1         0.6190903457E+00      0.1569013073E+01
          0                 2           2             4    7     1      -0.1148791432E-02       4    7    1        -0.6190922306E-01      0.1568566044E+00
          0                 3           1             4    7     1       0.7822841303E-04       4    7    1         0.4333645714E-02      0.1097593479E-01

    ------------------------------------------------
       NWT REQUIRED            3 OUTER ITERATIONS 
       AND A TOTAL OF          5 INNER ITERATIONS.
    ------------------------------------------------

 NO OUTPUT CONTROL FOR STRESS PERIOD   27   TIME STEP    9
 
 SOLVING FOR HEAD 
                                                   Max.-Head-Change                         Max.-Flux-Residual
  Residual-Control   Outer-Iter.   Inner-Iter.     Column Row Layer    Maximum-Head-Change  Column Row Layer    Maximum-Flux-Residual          L2-NORM 
          0                 1           2             4    7     1       0.1170636761E-01       4    7    1         0.6136249249E+00      0.1557497528E+01
          0                 2           2             4    7     1      -0.1138713090E-02       4    7    1        -0.6136267678E-01      0.1557112864E+00
          0                 3           1             4    7     1       0.7754211580E-04       4    7    1         0.4295387488E-02      0.1089617112E-01

    ------------------------------------------------
       NWT REQUIRED            3 OUTER ITERATIONS 
       AND A TOTAL OF          5 INNER ITERATIONS.
    ------------------------------------------------

 NO OUTPUT CONTROL FOR STRESS PERIOD   27   TIME STEP   10
 
 SOLVING FOR HEAD 
                                                   Max.-Head-Change                         Max.-Flux-Residual
  Residual-Control   Outer-Iter.   Inner-Iter.     Column Row Layer    Maximum-Head-Change  Column Row Layer    Maximum-Flux-Residual          L2-NORM 
          0                 1           2             4    7     1       0.1160437583E-01       4    7    1         0.6082456422E+00      0.1546298946E+01
          0                 2           2             4    7     1      -0.1128792011E-02       4    7    1        -0.6082474446E-01      0.1545972034E+00
          0                 3           1             4    7     1       0.7686652757E-04       4    7    1         0.4257732244E-02      0.1081910948E-01

    ------------------------------------------------
       NWT REQUIRED            3 OUTER ITERATIONS 
       AND A TOTAL OF          5 INNER ITERATIONS.
    ------------------------------------------------

 NO OUTPUT CONTROL FOR STRESS PERIOD   27   TIME STEP   11
 
 SOLVING FOR HEAD 
                                                   Max.-Head-Change                         Max.-Flux-Residual
  Residual-Control   Outer-Iter.   Inner-Iter.     Column Row Layer    Maximum-Head-Change  Column Row Layer    Maximum-Flux-Residual          L2-NORM 
          0                 1           2             4    7     1       0.1150383056E-01       4    7    1         0.6029428636E+00      0.1535393377E+01
          0                 2           2             4    7     1      -0.1119011640E-02       4    7    1        -0.6029446267E-01      0.1535118790E+00
          0                 3           1             4    7     1       0.7620052094E-04       4    7    1         0.4220612529E-02      0.1074322387E-01

    ------------------------------------------------
       NWT REQUIRED            3 OUTER ITERATIONS 
       AND A TOTAL OF          5 INNER ITERATIONS.
    ------------------------------------------------

 NO OUTPUT CONTROL FOR STRESS PERIOD   27   TIME STEP   12
 
 SOLVING FOR HEAD 
                                                   Max.-Head-Change                         Max.-Flux-Residual
  Residual-Control   Outer-Iter.   Inner-Iter.     Column Row Layer    Maximum-Head-Change  Column Row Layer    Maximum-Flux-Residual          L2-NORM 
          0                 1           2             4    7     1       0.1140469289E-01       4    7    1         0.5977150847E+00      0.1524741857E+01
          0                 2           2             4    7     1      -0.1109368191E-02       4    7    1        -0.5977168097E-01      0.1524504826E+00
          0                 3           1             4    7     1       0.7554383888E-04       4    7    1         0.4184017854E-02      0.1066939722E-01

    ------------------------------------------------
       NWT REQUIRED            3 OUTER ITERATIONS 
       AND A TOTAL OF          5 INNER ITERATIONS.
    ------------------------------------------------

 NO OUTPUT CONTROL FOR STRESS PERIOD   27   TIME STEP   13
 
 SOLVING FOR HEAD 
                                                   Max.-Head-Change                         Max.-Flux-Residual
  Residual-Control   Outer-Iter.   Inner-Iter.     Column Row Layer    Maximum-Head-Change  Column Row Layer    Maximum-Flux-Residual          L2-NORM 
          0                 1           2             4    7     1       0.1130706842E-01       4    7    1         0.5925676055E+00      0.1514340377E+01
          0                 2           2             4    7     1      -0.1099871937E-02       4    7    1        -0.5925692931E-01      0.1514140155E+00
          0                 3           1             4    7     1       0.7489717957E-04       4    7    1         0.4147985243E-02      0.1059710802E-01

    ------------------------------------------------
       NWT REQUIRED            3 OUTER ITERATIONS 
       AND A TOTAL OF          5 INNER ITERATIONS.
    ------------------------------------------------

 NO OUTPUT CONTROL FOR STRESS PERIOD   27   TIME STEP   14
 
 SOLVING FOR HEAD 
                                                   Max.-Head-Change                         Max.-Flux-Residual
  Residual-Control   Outer-Iter.   Inner-Iter.     Column Row Layer    Maximum-Head-Change  Column Row Layer    Maximum-Flux-Residual          L2-NORM 
          0                 1           2             4    7     1       0.1121078643E-01       4    7    1         0.5874912649E+00      0.1504157658E+01
          0                 2           2             4    7     1      -0.1090506272E-02       4    7    1        -0.5874929163E-01      0.1503981487E+00
          0                 3           1             4    7     1       0.7425941279E-04       4    7    1         0.4112450627E-02      0.1052578090E-01

    ------------------------------------------------
       NWT REQUIRED            3 OUTER ITERATIONS 
       AND A TOTAL OF          5 INNER ITERATIONS.
    ------------------------------------------------

 NO OUTPUT CONTROL FOR STRESS PERIOD   27   TIME STEP   15
 
 SOLVING FOR HEAD 
                                                   Max.-Head-Change                         Max.-Flux-Residual
  Residual-Control   Outer-Iter.   Inner-Iter.     Column Row Layer    Maximum-Head-Change  Column Row Layer    Maximum-Flux-Residual          L2-NORM 
          0                 1           2             4    7     1       0.1111595088E-01       4    7    1         0.5824918487E+00      0.1494181574E+01
          0                 2           2             4    7     1      -0.1081281306E-02       4    7    1        -0.5824934648E-01      0.1494036869E+00
          0                 3           1             4    7     1       0.7363122726E-04       4    7    1         0.4077454479E-02      0.1045695971E-01

    ------------------------------------------------
       NWT REQUIRED            3 OUTER ITERATIONS 
       AND A TOTAL OF          5 INNER ITERATIONS.
    ------------------------------------------------

 NO OUTPUT CONTROL FOR STRESS PERIOD   27   TIME STEP   16
 
 SOLVING FOR HEAD 
                                                   Max.-Head-Change                         Max.-Flux-Residual
  Residual-Control   Outer-Iter.   Inner-Iter.     Column Row Layer    Maximum-Head-Change  Column Row Layer    Maximum-Flux-Residual          L2-NORM 
          0                 1           2             4    7     1       0.1102252814E-01       4    7    1         0.5775674280E+00      0.1484393971E+01
          0                 2           2             4    7     1      -0.1072193771E-02       4    7    1        -0.5775690099E-01      0.1484271500E+00
          0                 3           1             4    7     1       0.7301240026E-04       4    7    1         0.4042983313E-02      0.1038869386E-01

    ------------------------------------------------
       NWT REQUIRED            3 OUTER ITERATIONS 
       AND A TOTAL OF          5 INNER ITERATIONS.
    ------------------------------------------------

 NO OUTPUT CONTROL FOR STRESS PERIOD   27   TIME STEP   17
 
 SOLVING FOR HEAD 
                                                   Max.-Head-Change                         Max.-Flux-Residual
  Residual-Control   Outer-Iter.   Inner-Iter.     Column Row Layer    Maximum-Head-Change  Column Row Layer    Maximum-Flux-Residual          L2-NORM 
          0                 1           2             4    7     1       0.1093034495E-01       4    7    1         0.5727089398E+00      0.1474783049E+01
          0                 2           2             4    7     1      -0.1063226810E-02       4    7    1        -0.5727104885E-01      0.1474679163E+00
          0                 3           1             4    7     1       0.7240178381E-04       4    7    1         0.4008973685E-02      0.1032185550E-01

    ------------------------------------------------
       NWT REQUIRED            3 OUTER ITERATIONS 
       AND A TOTAL OF          5 INNER ITERATIONS.
    ------------------------------------------------

 NO OUTPUT CONTROL FOR STRESS PERIOD   27   TIME STEP   18
 
 SOLVING FOR HEAD 
                                                   Max.-Head-Change                         Max.-Flux-Residual
  Residual-Control   Outer-Iter.   Inner-Iter.     Column Row Layer    Maximum-Head-Change  Column Row Layer    Maximum-Flux-Residual          L2-NORM 
          0                 1           2             4    7     1       0.1083951444E-01       4    7    1         0.5679220393E+00      0.1465345647E+01
          0                 2           2             4    7     1      -0.1054391431E-02       4    7    1        -0.5679235556E-01      0.1465257853E+00
          0                 3           1             4    7     1       0.7180012828E-04       4    7    1         0.3975465178E-02      0.1025600649E-01

    ------------------------------------------------
       NWT REQUIRED            3 OUTER ITERATIONS 
       AND A TOTAL OF          5 INNER ITERATIONS.
    ------------------------------------------------

 NO OUTPUT CONTROL FOR STRESS PERIOD   27   TIME STEP   19
 
 SOLVING FOR HEAD 
                                                   Max.-Head-Change                         Max.-Flux-Residual
  Residual-Control   Outer-Iter.   Inner-Iter.     Column Row Layer    Maximum-Head-Change  Column Row Layer    Maximum-Flux-Residual          L2-NORM 
          0                 1           2             4    7     1       0.1075000514E-01       4    7    1         0.5632052737E+00      0.1456065693E+01
          0                 2           2             4    7     1      -0.1045684570E-02       4    7    1        -0.5632067585E-01      0.1455992266E+00
          0                 3           1             4    7     1       0.7120722340E-04       4    7    1         0.3942447604E-02      0.1019134357E-01

    ------------------------------------------------
       NWT REQUIRED            3 OUTER ITERATIONS 
       AND A TOTAL OF          5 INNER ITERATIONS.
    ------------------------------------------------

 NO OUTPUT CONTROL FOR STRESS PERIOD   27   TIME STEP   20
 
 SOLVING FOR HEAD 
                                                   Max.-Head-Change                         Max.-Flux-Residual
  Residual-Control   Outer-Iter.   Inner-Iter.     Column Row Layer    Maximum-Head-Change  Column Row Layer    Maximum-Flux-Residual          L2-NORM 
          0                 1           2             4    7     1       0.1066164732E-01       4    7    1         0.5585496905E+00      0.1446930821E+01
          0                 2           2             4    7     1      -0.1037089718E-02       4    7    1        -0.5585511447E-01      0.1446868413E+00
          0                 3           1             4    7     1       0.7062194625E-04       4    7    1         0.3909858320E-02      0.1012748641E-01

    ------------------------------------------------
       NWT REQUIRED            3 OUTER ITERATIONS 
       AND A TOTAL OF          5 INNER ITERATIONS.
    ------------------------------------------------

 NO OUTPUT CONTROL FOR STRESS PERIOD   27   TIME STEP   21
 
 SOLVING FOR HEAD 
                                                   Max.-Head-Change                         Max.-Flux-Residual
  Residual-Control   Outer-Iter.   Inner-Iter.     Column Row Layer    Maximum-Head-Change  Column Row Layer    Maximum-Flux-Residual          L2-NORM 
          0                 1           2             4    7     1       0.1057455671E-01       4    7    1         0.5539611300E+00      0.1437940269E+01
          0                 2           2             4    7     1      -0.1028618132E-02       4    7    1        -0.5539625543E-01      0.1437887843E+00
          0                 3           1             4    7     1       0.7004506296E-04       4    7    1         0.3877738196E-02      0.1006470441E-01

    ------------------------------------------------
       NWT REQUIRED            3 OUTER ITERATIONS 
       AND A TOTAL OF          5 INNER ITERATIONS.
    ------------------------------------------------

 NO OUTPUT CONTROL FOR STRESS PERIOD   27   TIME STEP   22
 
 SOLVING FOR HEAD 
                                                   Max.-Head-Change                         Max.-Flux-Residual
  Residual-Control   Outer-Iter.   Inner-Iter.     Column Row Layer    Maximum-Head-Change  Column Row Layer    Maximum-Flux-Residual          L2-NORM 
          0                 1           2             4    7     1       0.1048856613E-01       4    7    1         0.5494309512E+00      0.1429081711E+01
          0                 2           2             4    7     1      -0.1020253550E-02       4    7    1        -0.5494323464E-01      0.1429040959E+00
          0                 3           1             4    7     1       0.6947546637E-04       4    7    1         0.3846026755E-02      0.1000282783E-01

    ------------------------------------------------
       NWT REQUIRED            3 OUTER ITERATIONS 
       AND A TOTAL OF          5 INNER ITERATIONS.
    ------------------------------------------------

 NO OUTPUT CONTROL FOR STRESS PERIOD   27   TIME STEP   23
 
 SOLVING FOR HEAD 
                                                   Max.-Head-Change                         Max.-Flux-Residual
  Residual-Control   Outer-Iter.   Inner-Iter.     Column Row Layer    Maximum-Head-Change  Column Row Layer    Maximum-Flux-Residual          L2-NORM 
          0                 1           2             4    7     1       0.1040379265E-01       4    7    1         0.5449651278E+00      0.1420353809E+01
          0                 2           2             4    7     1      -0.1012007361E-02       4    7    1        -0.5449664946E-01      0.1420316817E+00
          0                 3           1             4    7     1       0.6891393217E-04       4    7    1         0.3814765821E-02      0.9941869449E-02

    ------------------------------------------------
       NWT REQUIRED            3 OUTER ITERATIONS 
       AND A TOTAL OF          5 INNER ITERATIONS.
    ------------------------------------------------

 NO OUTPUT CONTROL FOR STRESS PERIOD   27   TIME STEP   24
 
 SOLVING FOR HEAD 
                                                   Max.-Head-Change                         Max.-Flux-Residual
  Residual-Control   Outer-Iter.   Inner-Iter.     Column Row Layer    Maximum-Head-Change  Column Row Layer    Maximum-Flux-Residual          L2-NORM 
          0                 1           2             4    7     1       0.1032020774E-01       4    7    1         0.5405624099E+00      0.1411752736E+01
          0                 2           2             4    7     1      -0.1003876787E-02       4    7    1        -0.5405637492E-01      0.1411721665E+00
          0                 3           1             4    7     1       0.6836027043E-04       4    7    1         0.3783946608E-02      0.9881738631E-02

    ------------------------------------------------
       NWT REQUIRED            3 OUTER ITERATIONS 
       AND A TOTAL OF          5 INNER ITERATIONS.
    ------------------------------------------------

 NO OUTPUT CONTROL FOR STRESS PERIOD   27   TIME STEP   25
 
 SOLVING FOR HEAD 
                                                   Max.-Head-Change                         Max.-Flux-Residual
  Residual-Control   Outer-Iter.   Inner-Iter.     Column Row Layer    Maximum-Head-Change  Column Row Layer    Maximum-Flux-Residual          L2-NORM 
          0                 1           2             4    7     1       0.1023778044E-01       4    7    1         0.5362213167E+00      0.1403265064E+01
          0                 2           2             4    7     1      -0.9958588185E-03       4    7    1        -0.5362226292E-01      0.1403239406E+00
          0                 3           1             4    7     1       0.6781427691E-04       4    7    1         0.3753558778E-02      0.9822425659E-02

    ------------------------------------------------
       NWT REQUIRED            3 OUTER ITERATIONS 
       AND A TOTAL OF          5 INNER ITERATIONS.
    ------------------------------------------------

 NO OUTPUT CONTROL FOR STRESS PERIOD   27   TIME STEP   26
 
 SOLVING FOR HEAD 
                                                   Max.-Head-Change                         Max.-Flux-Residual
  Residual-Control   Outer-Iter.   Inner-Iter.     Column Row Layer    Maximum-Head-Change  Column Row Layer    Maximum-Flux-Residual          L2-NORM 
          0                 1           2             4    7     1       0.1015648936E-01       4    7    1         0.5319402443E+00      0.1394901398E+01
          0                 2           2             4    7     1      -0.9879513742E-03       4    7    1        -0.5319415308E-01      0.1394879566E+00
          0                 3           1             4    7     1       0.6727580936E-04       4    7    1         0.3723591103E-02      0.9763924594E-02

    ------------------------------------------------
       NWT REQUIRED            3 OUTER ITERATIONS 
       AND A TOTAL OF          5 INNER ITERATIONS.
    ------------------------------------------------

 NO OUTPUT CONTROL FOR STRESS PERIOD   27   TIME STEP   27
 
 SOLVING FOR HEAD 
                                                   Max.-Head-Change                         Max.-Flux-Residual
  Residual-Control   Outer-Iter.   Inner-Iter.     Column Row Layer    Maximum-Head-Change  Column Row Layer    Maximum-Flux-Residual          L2-NORM 
          0                 1           2             4    7     1       0.1007617299E-01       4    7    1         0.5277107612E+00      0.1386641147E+01
          0                 2           2             4    7     1      -0.9801387437E-03       4    7    1        -0.5277120222E-01      0.1386622923E+00
          0                 3           1             4    7     1       0.6674379897E-04       4    7    1         0.3693984566E-02      0.9706160186E-02

    ------------------------------------------------
       NWT REQUIRED            3 OUTER ITERATIONS 
       AND A TOTAL OF          5 INNER ITERATIONS.
    ------------------------------------------------

 NO OUTPUT CONTROL FOR STRESS PERIOD   27   TIME STEP   28
 
 SOLVING FOR HEAD 
                                                   Max.-Head-Change                         Max.-Flux-Residual
  Residual-Control   Outer-Iter.   Inner-Iter.     Column Row Layer    Maximum-Head-Change  Column Row Layer    Maximum-Flux-Residual          L2-NORM 
          0                 1           2             4    7     1       0.9996948989E-02       4    7    1         0.5235391368E+00      0.1378493685E+01
          0                 2           2             4    7     1      -0.9724323725E-03       4    7    1        -0.5235403729E-01      0.1378479125E+00
          0                 3           1             4    7     1       0.6621902415E-04       4    7    1         0.3664783046E-02      0.9649188265E-02

    ------------------------------------------------
       NWT REQUIRED            3 OUTER ITERATIONS 
       AND A TOTAL OF          5 INNER ITERATIONS.
    ------------------------------------------------

 NO OUTPUT CONTROL FOR STRESS PERIOD   27   TIME STEP   29
 
 SOLVING FOR HEAD 
                                                   Max.-Head-Change                         Max.-Flux-Residual
  Residual-Control   Outer-Iter.   Inner-Iter.     Column Row Layer    Maximum-Head-Change  Column Row Layer    Maximum-Flux-Residual          L2-NORM 
          0                 1           2             4    7     1       0.9918793721E-02       4    7    1         0.5194241505E+00      0.1370454788E+01
          0                 2           2             4    7     1      -0.9648299596E-03       4    7    1        -0.5194253624E-01      0.1370442661E+00
          0                 3           1             4    7     1       0.6570132788E-04       4    7    1         0.3635977948E-02      0.9595560336E-02

    ------------------------------------------------
       NWT REQUIRED            3 OUTER ITERATIONS 
       AND A TOTAL OF          5 INNER ITERATIONS.
    ------------------------------------------------

 NO OUTPUT CONTROL FOR STRESS PERIOD   27   TIME STEP   30



 STREAM LISTING     PERIOD     27   STEP       30

 LAYER ROW COL. STREAM  RCH.  FLOW INTO     FLOW TO   FLOW OUT OF   OVRLND.     DIRECT     STREAM       STREAM     STREAM     STREAM   STREAMBED  STREAMBED
                SEG.NO.  NO.  STRM. RCH.    AQUIFER    STRM. RCH.    RUNOFF     PRECIP       ET          HEAD       DEPTH      WIDTH   CONDCTNC.   GRADIENT

   1    1    1     1     1    1.5750E+01  1.9239E-01   1.5557E+01  0.000E+00  0.000E+00  0.000E+00  1.09407E+03  1.025E+00  1.062E+01  4.780E-02  1.342E+00
   1    2    2     1     2    1.5557E+01  2.9659E-01   1.5261E+01  0.000E+00  0.000E+00  0.000E+00  1.08908E+03  1.020E+00  1.054E+01  7.378E-02  1.340E+00
   1    3    3     1     3    1.5261E+01  2.5163E-01   1.5009E+01  0.000E+00  0.000E+00  0.000E+00  1.08343E+03  1.015E+00  1.045E+01  6.268E-02  1.338E+00
   1    3    4     1     4    1.5009E+01  2.3063E-01   1.4778E+01  0.000E+00  0.000E+00  0.000E+00  1.07842E+03  1.010E+00  1.036E+01  5.751E-02  1.337E+00
   1    4    5     2     1    1.2778E+01  2.9653E-01   1.2482E+01  0.000E+00  0.000E+00  0.000E+00  1.07274E+03  8.017E-01  1.200E+01  7.800E-02  1.267E+00
   1    5    6     2     2    1.2482E+01  2.2750E-01   1.2254E+01  0.000E+00  0.000E+00  0.000E+00  1.06730E+03  7.916E-01  1.200E+01  6.000E-02  1.264E+00
   1    6    6     2     3    1.2254E+01  2.2697E-01   1.2027E+01  0.000E+00  0.000E+00  0.000E+00  1.06258E+03  7.829E-01  1.200E+01  6.000E-02  1.261E+00
   1    7    6     2     4    1.2027E+01  2.2644E-01   1.1801E+01  0.000E+00  0.000E+00  0.000E+00  1.05785E+03  7.741E-01  1.200E+01  6.000E-02  1.258E+00
   1    8    6     2     5    1.1801E+01  2.2591E-01   1.1575E+01  0.000E+00  0.000E+00  0.000E+00  1.05312E+03  7.652E-01  1.200E+01  6.000E-02  1.255E+00
   1    3    5     3     1    2.0000E+00  2.8252E-01   1.7175E+00  0.000E+00  0.000E+00  0.000E+00  1.07555E+03  1.909E+00  9.636E+00  7.227E-02  1.955E+00
   1    3    6     3     2    1.7175E+00  2.4905E-01   1.4684E+00  0.000E+00  0.000E+00  0.000E+00  1.07264E+03  1.727E+00  8.909E+00  6.682E-02  1.864E+00
   1    3    7     3     3    1.4684E+00  1.9718E-01   1.2712E+00  0.000E+00  0.000E+00  0.000E+00  1.06987E+03  1.555E+00  8.218E+00  5.547E-02  1.777E+00
   1    4    8     3     4    1.2712E+00  2.2567E-01   1.0456E+00  0.000E+00  0.000E+00  0.000E+00  1.06682E+03  1.364E+00  7.455E+00  6.709E-02  1.682E+00
   1    5    8     3     5    1.0456E+00  1.5790E-01   8.8768E-01  0.000E+00  0.000E+00  0.000E+00  1.06362E+03  1.164E+00  6.655E+00  4.991E-02  1.582E+00
   1    6    8     3     6    8.8768E-01  5.5980E-02   8.3170E-01  0.000E+00  0.000E+00  0.000E+00  1.06158E+03  1.036E+00  6.145E+00  1.844E-02  1.518E+00
   1    5   10     4     1    1.0000E+01  9.0919E-02   9.9091E+00  0.000E+00  0.000E+00  0.000E+00  1.07836E+03  6.368E-01  1.000E+01  2.500E-02  1.212E+00
   1    5    9     4     2    9.9091E+00  1.8158E-01   9.7275E+00  0.000E+00  0.000E+00  0.000E+00  1.07154E+03  6.315E-01  1.000E+01  5.000E-02  1.211E+00
   1    6    8     4     3    9.7275E+00  1.2689E-01   9.6006E+00  0.000E+00  0.000E+00  0.000E+00  1.06381E+03  6.256E-01  1.000E+01  3.500E-02  1.209E+00
   1    6    8     5     1    1.0432E+01  2.2686E-01   1.0205E+01  0.000E+00  0.000E+00  0.000E+00  1.05868E+03  6.790E-01  1.542E+01  6.166E-02  1.226E+00
   1    7    7     5     2    1.0205E+01  2.7894E-01   9.9265E+00  0.000E+00  0.000E+00  0.000E+00  1.05417E+03  6.732E-01  1.519E+01  7.594E-02  1.224E+00
   1    8    7     5     3    9.9265E+00  1.9221E-01   9.7343E+00  0.000E+00  0.000E+00  0.000E+00  1.04992E+03  6.676E-01  1.497E+01  5.241E-02  1.223E+00
   1    8    6     5     4    9.7343E+00  1.3577E-01   9.5985E+00  0.000E+00  0.000E+00  0.000E+00  1.04691E+03  6.637E-01  1.482E+01  3.706E-02  1.221E+00
   1    9    6     6     1    2.1173E+01  2.4608E-01   2.0927E+01  0.000E+00  0.000E+00  0.000E+00  1.04383E+03  1.101E+00  1.200E+01  6.000E-02  1.367E+00
   1   10    7     6     2    2.0927E+01  2.4562E-01   2.0682E+01  0.000E+00  0.000E+00  0.000E+00  1.03928E+03  1.094E+00  1.200E+01  6.000E-02  1.365E+00
   1   11    7     6     3    2.0682E+01  2.4515E-01   2.0437E+01  0.000E+00  0.000E+00  0.000E+00  1.03472E+03  1.086E+00  1.200E+01  6.000E-02  1.362E+00
   1   12    7     6     4    2.0437E+01  2.4468E-01   2.0192E+01  0.000E+00  0.000E+00  0.000E+00  1.03017E+03  1.078E+00  1.200E+01  6.000E-02  1.359E+00
   1   13    7     6     5    2.0192E+01  9.3128E-03   2.0183E+01  0.000E+00  0.000E+00  0.000E+00  1.02698E+03  1.074E+00  1.200E+01  2.400E-02  1.293E-01
   1   14    9     7     1    1.5000E+02  1.3834E+00   1.4862E+02  0.000E+00  0.000E+00  0.000E+00  1.03987E+03  2.288E+00  5.529E+01  5.593E-01  8.245E-01
   1   13    8     7     2    1.4862E+02  1.9870E+00   1.4663E+02  0.000E+00  0.000E+00  0.000E+00  1.03478E+03  2.279E+00  5.525E+01  6.147E-01  1.077E+00
   1   13    7     7     3    1.4663E+02  1.7270E+00   1.4490E+02  0.000E+00  0.000E+00  0.000E+00  1.02969E+03  2.269E+00  5.521E+01  5.584E-01  1.031E+00
   1   13    6     8     1    1.6509E+02  1.1439E+00   1.6394E+02  0.000E+00  0.000E+00  0.000E+00  1.02479E+03  2.916E+00  4.228E+01  4.309E-01  8.849E-01
   1   13    5     8     2    1.6394E+02  3.8295E-01   1.6356E+02  0.000E+00  0.000E+00  0.000E+00  1.01854E+03  2.911E+00  4.221E+01  4.301E-01  2.968E-01
   1   13    4     8     3    1.6356E+02 -1.7353E+00   1.6529E+02  0.000E+00  0.000E+00  0.000E+00  1.01229E+03  2.915E+00  4.227E+01  4.308E+00 -1.343E-01
   1   13    3     8     4    1.6529E+02 -3.2959E+00   1.6859E+02  0.000E+00  0.000E+00  0.000E+00  1.00606E+03  2.932E+00  4.252E+01  4.333E+00 -2.536E-01
   1   13    2     8     5    1.6859E+02 -2.4723E+00   1.7106E+02  0.000E+00  0.000E+00  0.000E+00  9.99826E+02  2.951E+00  4.279E+01  4.360E+00 -1.890E-01
   1   13    1     8     6    1.7106E+02 -1.9349E+00   1.7300E+02  0.000E+00  0.000E+00  0.000E+00  9.94840E+02  2.965E+00  4.300E+01  2.629E+00 -2.453E-01
   1    8    6     9     1    0.0000E+00  0.0000E+00   0.0000E+00  0.000E+00  0.000E+00  0.000E+00  1.07875E+03  0.000E+00  4.000E+00  0.000E+00  1.000E+00
   1    8    5     9     2    0.0000E+00  0.0000E+00   0.0000E+00  0.000E+00  0.000E+00  0.000E+00  1.07825E+03  0.000E+00  4.000E+00  0.000E+00  1.000E+00





UNSATURATED ZONE PACKAGE VOLUMETRIC BUDGET FOR  TIME STEP    30 STRESS PERIOD   27
  ------------------------------------------------------------------------------



     CUMULATIVE VOLUMES      L**3       RATES FOR THIS TIME STEP      L**3/T
     ------------------                 ------------------------

           IN:                                      IN:
           ---                                      ---
        INFILTRATION =  1099522230.8937          INFILTRATION =           0.8475

          OUT:                                     OUT:
          ----                                     ----
              UZF ET =   864205720.5262                UZF ET =           0.7500
        UZF RECHARGE =       73224.0000          UZF RECHARGE =       0.0000E+00

            IN - OUT =   235243286.3675              IN - OUT =       9.7500E-02

          STORAGE:                                 STORAGE:
          --------                                 --------
      STORAGE CHANGE =   235243494.2192        STORAGE CHANGE =       9.7500E-02

 PERCENT DISCREPANCY IS DIFFERENCE BETWEEN IN-OUT MINUS CHANGE IN STORAGE
 DIVIDED BY THE AVERAGE OF IN AND OUT TIMES 100

 PERCENT DISCREPANCY =          -0.00     PERCENT DISCREPANCY =           0.00






1
  VOLUMETRIC BUDGET FOR AGRICULTURAL FIELDS AT  END OF TIME STEP   30, STRESS PERIOD  27
  ------------------------------------------------------------------------------

     CUMULATIVE VOLUMES      L**3       RATES FOR THIS TIME STEP      L**3/T
     ------------------                 ------------------------

           IN:                                      IN:
           ---                                      ---
               AG WELLS  =   666412096.0000                 AG WELLS  =           0.0000
      DIVERSION SEGMENTS =   375163232.0000        DIVERSION SEGMENTS =           0.0000
       IRRIGATION PONDS  =           0.0000         IRRIGATION PONDS  =           0.0000
           GW IRRIGATION =           0.0000             GW IRRIGATION =           0.0000
           SW IRRIGATION =           0.0000             SW IRRIGATION =           0.0000
        SYSTEM LOSSES GW =           0.0000          SYSTEM LOSSES GW =           0.0000
        SYSTEM LOSSES SW =           0.0000          SYSTEM LOSSES SW =           0.0000

                TOTAL IN =  1041575296.0000                  TOTAL IN =           0.0000

          OUT:                                     OUT:
          ----                                     ----
               AG WELLS  =           0.0000                 AG WELLS  =           0.0000
      DIVERSION SEGMENTS =           0.0000        DIVERSION SEGMENTS =           0.0000
       IRRIGATION PONDS  =           0.0000         IRRIGATION PONDS  =           0.0000
           GW IRRIGATION =   666412096.0000             GW IRRIGATION =           0.0000
           SW IRRIGATION =   375170880.0000             SW IRRIGATION =           0.0000
        SYSTEM LOSSES GW =           0.0000          SYSTEM LOSSES GW =           0.0000
        SYSTEM LOSSES SW =           0.0000          SYSTEM LOSSES SW =           0.0000

               TOTAL OUT =  1041582976.0000                 TOTAL OUT =           0.0000

                IN - OUT =       -7680.0000                  IN - OUT =           0.0000

     PERCENT DISCREPANCY =          -0.00         PERCENT DISCREPANCY =           0.00



1
  VOLUMETRIC BUDGET FOR ENTIRE MODEL AT END OF TIME STEP   30, STRESS PERIOD  27
  ------------------------------------------------------------------------------

     CUMULATIVE VOLUMES      L**3       RATES FOR THIS TIME STEP      L**3/T
     ------------------                 ------------------------

           IN:                                      IN:
           ---                                      ---
             STORAGE     =  1043173760.0000               STORAGE     =           2.9991
       CONSTANT HEAD     =           0.0000         CONSTANT HEAD     =           0.0000
     HEAD DEP BOUNDS     =    19732538.0000       HEAD DEP BOUNDS     =           0.2890
      STREAM LEAKAGE     =   806630272.0000        STREAM LEAKAGE     =          12.1913
        UZF RECHARGE     =       73223.9531          UZF RECHARGE     =           0.0000
               GW ET     =           0.0000                 GW ET     =           0.0000
     SURFACE LEAKAGE     =           0.0000       SURFACE LEAKAGE     =           0.0000
           AG WELLS      =           0.0000             AG WELLS      =           0.0000

                TOTAL IN =  1869609728.0000                  TOTAL IN =          15.4793

          OUT:                                     OUT:
          ----                                     ----
             STORAGE     =   495658720.0000               STORAGE     =           5.7539
       CONSTANT HEAD     =           0.0000         CONSTANT HEAD     =           0.0000
     HEAD DEP BOUNDS     =    19701728.0000       HEAD DEP BOUNDS     =           0.2879
      STREAM LEAKAGE     =   687843456.0000        STREAM LEAKAGE     =           9.4383
        UZF RECHARGE     =           0.0000          UZF RECHARGE     =           0.0000
               GW ET     =           0.0000                 GW ET     =           0.0000
     SURFACE LEAKAGE     =           0.0000       SURFACE LEAKAGE     =           0.0000
           AG WELLS      =   666412096.0000             AG WELLS      =           0.0000

               TOTAL OUT =  1869615872.0000                 TOTAL OUT =          15.4801

                IN - OUT =       -6144.0000                  IN - OUT =      -7.6771E-04

     PERCENT DISCREPANCY =          -0.00         PERCENT DISCREPANCY =          -0.00






         TIME SUMMARY AT END OF TIME STEP   30 IN STRESS PERIOD   27
                    SECONDS     MINUTES      HOURS       DAYS        YEARS
                    -----------------------------------------------------------
   TIME STEP LENGTH  87667.      1461.1      24.352      1.0147     2.77799E-03
 STRESS PERIOD TIME 2.63000E+06  43833.      730.56      30.440     8.33397E-02
         TOTAL TIME 6.84668E+07 1.14111E+06  19019.      792.44      2.1696    
1
1
                            STRESS PERIOD NO.   28, LENGTH =   2630000.    
                            -----------------------------------------------

                              NUMBER OF TIME STEPS =    30

                               MULTIPLIER FOR DELT =     1.000

                            INITIAL TIME STEP SIZE =   87666.66    

 REUSING NON-PARAMETER GHB CELLS FROM LAST STRESS PERIOD

      2 GHB CELLS

 REUSING STREAM SEGMENT DATA FROM LAST STRESS PERIOD



            AREAL INFILTRATION RATE
 READING ON UNIT   19 WITH FORMAT: (FREE)              

            1           2           3           4           5           6           7           8           9          10
 ........................................................................................................................
   1   1.0000E-10  2.0000E-10   0.000       0.000       0.000       0.000       0.000       0.000       0.000       0.000    
   2   2.0000E-10  1.0000E-10  2.0000E-10   0.000       0.000      8.0000E-10  8.0000E-10  5.0000E-10   0.000       0.000    
   3    0.000      5.0000E-10  1.0000E-10  1.0000E-10  8.0000E-10  8.0000E-10  5.0000E-10  5.0000E-10   0.000       0.000    
   4   8.0000E-10  5.0000E-10  1.0000E-10  1.0000E-10  1.0000E-10  1.0000E-10  1.0000E-10  1.0000E-10  2.0000E-10   0.000    
   5   8.0000E-10  5.0000E-10  1.0000E-10  1.0000E-10  1.0000E-10  1.0000E-10  1.0000E-10  1.0000E-10  1.0000E-10  1.0000E-10
   6   8.0000E-10  5.0000E-10  5.0000E-10  2.0000E-10  2.0000E-10  1.0000E-10  1.0000E-10  1.0000E-10  1.0000E-10  5.0000E-10
   7   8.0000E-10  5.0000E-10  5.0000E-10  2.0000E-10  2.0000E-10  1.0000E-10  1.0000E-10  2.0000E-10  2.0000E-10   0.000    
   8    0.000      5.0000E-10  5.0000E-10  2.0000E-10  2.0000E-10  1.0000E-10  1.0000E-10  2.0000E-10  5.0000E-10   0.000    
   9    0.000      5.0000E-10  5.0000E-10  2.0000E-10  2.0000E-10  1.0000E-10  1.0000E-10  2.0000E-10  5.0000E-10   0.000    
  10    0.000      5.0000E-10  5.0000E-10  2.0000E-10  2.0000E-10  1.0000E-10  1.0000E-10  2.0000E-10  5.0000E-10  8.0000E-10
  11    0.000      1.0000E-10  1.0000E-10  1.0000E-10  1.0000E-10  1.0000E-10  1.0000E-10  2.0000E-10  5.0000E-10   0.000    
  12   1.0000E-10  1.0000E-10  1.0000E-10  1.0000E-10  1.0000E-10  1.0000E-10  1.0000E-10  1.0000E-10  2.0000E-10   0.000    
  13   1.0000E-10  1.0000E-10  2.0000E-10  2.0000E-10  2.0000E-10  2.0000E-10  2.0000E-10  1.0000E-10  1.0000E-10   0.000    
  14    0.000      2.0000E-10  5.0000E-10  5.0000E-10  5.0000E-10  5.0000E-10  5.0000E-10  2.0000E-10  1.0000E-10   0.000    
  15    0.000       0.000      8.0000E-10  8.0000E-10  8.0000E-10  8.0000E-10   0.000       0.000       0.000       0.000    

                  ET RATE =  5.000000E-10

 USING ET EXTINCTION DEPTH FROM PREVIOUS STRESS PERIOD. CURRENT PERIOD IS:      28

 USING EXTINCTION WATER CONTENT FROM PREVIOUS STRESS PERIOD. CURRENT PERIOD IS:      28

 USING AIR ENTRY PRESSURE FROM PREVIOUS STRESS PERIOD. CURRENT PERIOD IS:      28

 USING ROOT PRESSURE HEAD FROM PREVIOUS STRESS PERIOD. CURRENT PERIOD IS:      28

 USING ROOT ACTIVITY FROM PREVIOUS STRESS PERIOD. CURRENT PERIOD IS:      28

 PROCESSING AG STRESS PERIOD DATA

 READING AG STRESS PERIOD DATA

 READING IRRIGATION SEGMENT

 READING IRRIGATION WELL

 READING SUPPLEMENTAL WELL

 NO IRRPOND OR REUSING IRRPOND DATA FROM LAST STRESS PERIOD

 END PROCESSING AG STRESS PERIOD DATA OPTIONS
 
 SOLVING FOR HEAD 
                                                   Max.-Head-Change                         Max.-Flux-Residual
  Residual-Control   Outer-Iter.   Inner-Iter.     Column Row Layer    Maximum-Head-Change  Column Row Layer    Maximum-Flux-Residual          L2-NORM 
          0                 1           2             4    7     1       0.9841755863E-02       4    7    1         0.5153645760E+00      0.1418055971E+01
          0                 2           2             4    7     1      -0.9573362408E-03       4    7    1        -0.5153657637E-01      0.1415789314E+00
          0                 3           1             4    7     1       0.6519103368E-04       4    7    1         0.3607560792E-02      0.9889487137E-02

    ------------------------------------------------
       NWT REQUIRED            3 OUTER ITERATIONS 
       AND A TOTAL OF          5 INNER ITERATIONS.
    ------------------------------------------------

 NO OUTPUT CONTROL FOR STRESS PERIOD   28   TIME STEP    1
 
 SOLVING FOR HEAD 
                                                   Max.-Head-Change                         Max.-Flux-Residual
  Residual-Control   Outer-Iter.   Inner-Iter.     Column Row Layer    Maximum-Head-Change  Column Row Layer    Maximum-Flux-Residual          L2-NORM 
          0                 1           2             4    7     1       0.9765712401E-02       4    7    1         0.5113556165E+00      0.1471833325E+01
          0                 2           2             4    7     1      -0.9499392500E-03       4    7    1        -0.5113567803E-01      0.1466839743E+00
          0                 3           1             4    7     1       0.6468732598E-04       4    7    1         0.3579497915E-02      0.1022216255E-01

    ------------------------------------------------
       NWT REQUIRED            3 OUTER ITERATIONS 
       AND A TOTAL OF          5 INNER ITERATIONS.
    ------------------------------------------------

 NO OUTPUT CONTROL FOR STRESS PERIOD   28   TIME STEP    2
 
 SOLVING FOR HEAD 
                                                   Max.-Head-Change                         Max.-Flux-Residual
  Residual-Control   Outer-Iter.   Inner-Iter.     Column Row Layer    Maximum-Head-Change  Column Row Layer    Maximum-Flux-Residual          L2-NORM 
          0                 1           2             4    7     1       0.9690905154E-02       4    7    1         0.5074128598E+00      0.1451155163E+01
          0                 2           2             4    7     1      -0.9426625105E-03       4    7    1        -0.5074140005E-01      0.1446853183E+00
          0                 3           1             4    7     1       0.6419180729E-04       4    7    1         0.3551898469E-02      0.1008840599E-01

    ------------------------------------------------
       NWT REQUIRED            3 OUTER ITERATIONS 
       AND A TOTAL OF          5 INNER ITERATIONS.
    ------------------------------------------------

 NO OUTPUT CONTROL FOR STRESS PERIOD   28   TIME STEP    3
 
 SOLVING FOR HEAD 
                                                   Max.-Head-Change                         Max.-Flux-Residual
  Residual-Control   Outer-Iter.   Inner-Iter.     Column Row Layer    Maximum-Head-Change  Column Row Layer    Maximum-Flux-Residual          L2-NORM 
          0                 1           2             4    7     1       0.9617031509E-02       4    7    1         0.5035195542E+00      0.1432453921E+01
          0                 2           2             4    7     1      -0.9354765857E-03       4    7    1        -0.5035206723E-01      0.1428797743E+00
          0                 3           1             4    7     1       0.6370247323E-04       4    7    1         0.3524645179E-02      0.9972079672E-02

    ------------------------------------------------
       NWT REQUIRED            3 OUTER ITERATIONS 
       AND A TOTAL OF          5 INNER ITERATIONS.
    ------------------------------------------------

 NO OUTPUT CONTROL FOR STRESS PERIOD   28   TIME STEP    4
 
 SOLVING FOR HEAD 
                                                   Max.-Head-Change                         Max.-Flux-Residual
  Residual-Control   Outer-Iter.   Inner-Iter.     Column Row Layer    Maximum-Head-Change  Column Row Layer    Maximum-Flux-Residual          L2-NORM 
          0                 1           2             4    7     1       0.9544339848E-02       4    7    1         0.4996892993E+00      0.1415459096E+01
          0                 2           2             4    7     1      -0.9284056366E-03       4    7    1        -0.4996903955E-01      0.1412270207E+00
          0                 3           1             4    7     1       0.6322096809E-04       4    7    1         0.3497833246E-02      0.9856608146E-02

    ------------------------------------------------
       NWT REQUIRED            3 OUTER ITERATIONS 
       AND A TOTAL OF          5 INNER ITERATIONS.
    ------------------------------------------------

 NO OUTPUT CONTROL FOR STRESS PERIOD   28   TIME STEP    5
 
 SOLVING FOR HEAD 
                                                   Max.-Head-Change                         Max.-Flux-Residual
  Residual-Control   Outer-Iter.   Inner-Iter.     Column Row Layer    Maximum-Head-Change  Column Row Layer    Maximum-Flux-Residual          L2-NORM 
          0                 1           2             4    7     1       0.9472527377E-02       4    7    1         0.4959056833E+00      0.1399916375E+01
          0                 2           2             4    7     1      -0.9214202096E-03       4    7    1        -0.4959067582E-01      0.1397170669E+00
          0                 3           1             4    7     1       0.6274528641E-04       4    7    1         0.3471347779E-02      0.9755304762E-02

    ------------------------------------------------
       NWT REQUIRED            3 OUTER ITERATIONS 
       AND A TOTAL OF          5 INNER ITERATIONS.
    ------------------------------------------------

 NO OUTPUT CONTROL FOR STRESS PERIOD   28   TIME STEP    6
 
 SOLVING FOR HEAD 
                                                   Max.-Head-Change                         Max.-Flux-Residual
  Residual-Control   Outer-Iter.   Inner-Iter.     Column Row Layer    Maximum-Head-Change  Column Row Layer    Maximum-Flux-Residual          L2-NORM 
          0                 1           2             4    7     1       0.9401711260E-02       4    7    1         0.4921749744E+00      0.1385641652E+01
          0                 2           2             4    7     1      -0.9145317015E-03       4    7    1        -0.4921760284E-01      0.1383279104E+00
          0                 3           1             4    7     1       0.6227620495E-04       4    7    1         0.3445232684E-02      0.9661345210E-02

    ------------------------------------------------
       NWT REQUIRED            3 OUTER ITERATIONS 
       AND A TOTAL OF          5 INNER ITERATIONS.
    ------------------------------------------------

 NO OUTPUT CONTROL FOR STRESS PERIOD   28   TIME STEP    7
 
 SOLVING FOR HEAD 
                                                   Max.-Head-Change                         Max.-Flux-Residual
  Residual-Control   Outer-Iter.   Inner-Iter.     Column Row Layer    Maximum-Head-Change  Column Row Layer    Maximum-Flux-Residual          L2-NORM 
          0                 1           2             4    7     1       0.9331867537E-02       4    7    1         0.4884959249E+00      0.1372443771E+01
          0                 2           2             4    7     1      -0.9077377823E-03       4    7    1        -0.4884969590E-01      0.1370409016E+00
          0                 3           1             4    7     1       0.6181356409E-04       4    7    1         0.3419479196E-02      0.9574122390E-02

    ------------------------------------------------
       NWT REQUIRED            3 OUTER ITERATIONS 
       AND A TOTAL OF          5 INNER ITERATIONS.
    ------------------------------------------------

 NO OUTPUT CONTROL FOR STRESS PERIOD   28   TIME STEP    8
 
 SOLVING FOR HEAD 
                                                   Max.-Head-Change                         Max.-Flux-Residual
  Residual-Control   Outer-Iter.   Inner-Iter.     Column Row Layer    Maximum-Head-Change  Column Row Layer    Maximum-Flux-Residual          L2-NORM 
          0                 1           2             4    7     1       0.9262969275E-02       4    7    1         0.4848672925E+00      0.1360183200E+01
          0                 2           2             4    7     1      -0.9010358310E-03       4    7    1        -0.4848683068E-01      0.1358430175E+00
          0                 3           1             4    7     1       0.6135718690E-04       4    7    1         0.3394078659E-02      0.9493031701E-02

    ------------------------------------------------
       NWT REQUIRED            3 OUTER ITERATIONS 
       AND A TOTAL OF          5 INNER ITERATIONS.
    ------------------------------------------------

 NO OUTPUT CONTROL FOR STRESS PERIOD   28   TIME STEP    9
 
 SOLVING FOR HEAD 
                                                   Max.-Head-Change                         Max.-Flux-Residual
  Residual-Control   Outer-Iter.   Inner-Iter.     Column Row Layer    Maximum-Head-Change  Column Row Layer    Maximum-Flux-Residual          L2-NORM 
          0                 1           2             4    7     1       0.9194998989E-02       4    7    1         0.4812876808E+00      0.1348733467E+01
          0                 2           2             4    7     1      -0.8944241475E-03       4    7    1        -0.4812886761E-01      0.1347221817E+00
          0                 3           1             4    7     1       0.6090695588E-04       4    7    1         0.3369021253E-02      0.9416547965E-02

    ------------------------------------------------
       NWT REQUIRED            3 OUTER ITERATIONS 
       AND A TOTAL OF          5 INNER ITERATIONS.
    ------------------------------------------------

 NO OUTPUT CONTROL FOR STRESS PERIOD   28   TIME STEP   10
 
 SOLVING FOR HEAD 
                                                   Max.-Head-Change                         Max.-Flux-Residual
  Residual-Control   Outer-Iter.   Inner-Iter.     Column Row Layer    Maximum-Head-Change  Column Row Layer    Maximum-Flux-Residual          L2-NORM 
          0                 1           2             4    7     1       0.9127928193E-02       4    7    1         0.4777561831E+00      0.1337978792E+01
          0                 2           2             4    7     1      -0.8878999602E-03       4    7    1        -0.4777571596E-01      0.1336678322E+00
          0                 3           1             4    7     1       0.6046268335E-04       4    7    1         0.3344300647E-02      0.9344914335E-02

    ------------------------------------------------
       NWT REQUIRED            3 OUTER ITERATIONS 
       AND A TOTAL OF          5 INNER ITERATIONS.
    ------------------------------------------------

 NO OUTPUT CONTROL FOR STRESS PERIOD   28   TIME STEP   11
 
 SOLVING FOR HEAD 
                                                   Max.-Head-Change                         Max.-Flux-Residual
  Residual-Control   Outer-Iter.   Inner-Iter.     Column Row Layer    Maximum-Head-Change  Column Row Layer    Maximum-Flux-Residual          L2-NORM 
          0                 1           2             4    7     1       0.9061741736E-02       4    7    1         0.4742713225E+00      0.1327842590E+01
          0                 2           2             4    7     1      -0.8814617956E-03       4    7    1        -0.4742722809E-01      0.1326719549E+00
          0                 3           1             4    7     1       0.6002426836E-04       4    7    1         0.3319906494E-02      0.9276748962E-02

    ------------------------------------------------
       NWT REQUIRED            3 OUTER ITERATIONS 
       AND A TOTAL OF          5 INNER ITERATIONS.
    ------------------------------------------------

 NO OUTPUT CONTROL FOR STRESS PERIOD   28   TIME STEP   12
 
 SOLVING FOR HEAD 
                                                   Max.-Head-Change                         Max.-Flux-Residual
  Residual-Control   Outer-Iter.   Inner-Iter.     Column Row Layer    Maximum-Head-Change  Column Row Layer    Maximum-Flux-Residual          L2-NORM 
          0                 1           2             4    7     1       0.8996415665E-02       4    7    1         0.4708323136E+00      0.1318230391E+01
          0                 2           2             4    7     1      -0.8751073241E-03       4    7    1        -0.4708332542E-01      0.1317261219E+00
          0                 3           1             4    7     1       0.5959155282E-04       4    7    1         0.3295833325E-02      0.9212047160E-02

    ------------------------------------------------
       NWT REQUIRED            3 OUTER ITERATIONS 
       AND A TOTAL OF          5 INNER ITERATIONS.
    ------------------------------------------------

 NO OUTPUT CONTROL FOR STRESS PERIOD   28   TIME STEP   13
 
 SOLVING FOR HEAD 
                                                   Max.-Head-Change                         Max.-Flux-Residual
  Residual-Control   Outer-Iter.   Inner-Iter.     Column Row Layer    Maximum-Head-Change  Column Row Layer    Maximum-Flux-Residual          L2-NORM 
          0                 1           2             4    7     1       0.8931933383E-02       4    7    1         0.4674379142E+00      0.1309089439E+01
          0                 2           2             4    7     1      -0.8688382065E-03       4    7    1        -0.4674388375E-01      0.1308290003E+00
          0                 3           1             4    7     1       0.5916464961E-04       4    7    1         0.3272072410E-02      0.9150174171E-02

    ------------------------------------------------
       NWT REQUIRED            3 OUTER ITERATIONS 
       AND A TOTAL OF          5 INNER ITERATIONS.
    ------------------------------------------------

 NO OUTPUT CONTROL FOR STRESS PERIOD   28   TIME STEP   14
 
 SOLVING FOR HEAD 
                                                   Max.-Head-Change                         Max.-Flux-Residual
  Residual-Control   Outer-Iter.   Inner-Iter.     Column Row Layer    Maximum-Head-Change  Column Row Layer    Maximum-Flux-Residual          L2-NORM 
          0                 1           2             4    7     1       0.8868251010E-02       4    7    1         0.4640870900E+00      0.1300347676E+01
          0                 2           2             4    7     1      -0.8626403478E-03       4    7    1        -0.4640879965E-01      0.1299625848E+00
          0                 3           1             4    7     1       0.5874259833E-04       4    7    1         0.3248616522E-02      0.9090679117E-02

    ------------------------------------------------
       NWT REQUIRED            3 OUTER ITERATIONS 
       AND A TOTAL OF          5 INNER ITERATIONS.
    ------------------------------------------------

 NO OUTPUT CONTROL FOR STRESS PERIOD   28   TIME STEP   15
 
 SOLVING FOR HEAD 
                                                   Max.-Head-Change                         Max.-Flux-Residual
  Residual-Control   Outer-Iter.   Inner-Iter.     Column Row Layer    Maximum-Head-Change  Column Row Layer    Maximum-Flux-Residual          L2-NORM 
          0                 1           2             4    7     1       0.8805362486E-02       4    7    1         0.4607780875E+00      0.1291959784E+01
          0                 2           2             4    7     1      -0.8565229852E-03       4    7    1        -0.4607789779E-01      0.1291335074E+00
          0                 3           1             4    7     1       0.5832602888E-04       4    7    1         0.3225453400E-02      0.9033522437E-02

    ------------------------------------------------
       NWT REQUIRED            3 OUTER ITERATIONS 
       AND A TOTAL OF          5 INNER ITERATIONS.
    ------------------------------------------------

 NO OUTPUT CONTROL FOR STRESS PERIOD   28   TIME STEP   16
 
 SOLVING FOR HEAD 
                                                   Max.-Head-Change                         Max.-Flux-Residual
  Residual-Control   Outer-Iter.   Inner-Iter.     Column Row Layer    Maximum-Head-Change  Column Row Layer    Maximum-Flux-Residual          L2-NORM 
          0                 1           2             4    7     1       0.8743385098E-02       4    7    1         0.4575173952E+00      0.1283892585E+01
          0                 2           2             4    7     1      -0.8504942518E-03       4    7    1        -0.4575182696E-01      0.1283353070E+00
          0                 3           1             4    7     1       0.5791549507E-04       4    7    1         0.3202628458E-02      0.8978566617E-02

    ------------------------------------------------
       NWT REQUIRED            3 OUTER ITERATIONS 
       AND A TOTAL OF          5 INNER ITERATIONS.
    ------------------------------------------------

 NO OUTPUT CONTROL FOR STRESS PERIOD   28   TIME STEP   17
 
 SOLVING FOR HEAD 
                                                   Max.-Head-Change                         Max.-Flux-Residual
  Residual-Control   Outer-Iter.   Inner-Iter.     Column Row Layer    Maximum-Head-Change  Column Row Layer    Maximum-Flux-Residual          L2-NORM 
          0                 1           2             4    7     1       0.8682023543E-02       4    7    1         0.4542892952E+00      0.1276106175E+01
          0                 2           2             4    7     1      -0.8445254222E-03       4    7    1        -0.4542901540E-01      0.1275638072E+00
          0                 3           1             4    7     1       0.5750903949E-04       4    7    1         0.3180031628E-02      0.8925248330E-02

    ------------------------------------------------
       NWT REQUIRED            3 OUTER ITERATIONS 
       AND A TOTAL OF          5 INNER ITERATIONS.
    ------------------------------------------------

 NO OUTPUT CONTROL FOR STRESS PERIOD   28   TIME STEP   18
 
 SOLVING FOR HEAD 
                                                   Max.-Head-Change                         Max.-Flux-Residual
  Residual-Control   Outer-Iter.   Inner-Iter.     Column Row Layer    Maximum-Head-Change  Column Row Layer    Maximum-Flux-Residual          L2-NORM 
          0                 1           2             4    7     1       0.8621407775E-02       4    7    1         0.4511004495E+00      0.1268574355E+01
          0                 2           2             4    7     1      -0.8386291389E-03       4    7    1        -0.4511012933E-01      0.1268170063E+00
          0                 3           1             4    7     1       0.5710752518E-04       4    7    1         0.3157709632E-02      0.8873393974E-02

    ------------------------------------------------
       NWT REQUIRED            3 OUTER ITERATIONS 
       AND A TOTAL OF          5 INNER ITERATIONS.
    ------------------------------------------------

 NO OUTPUT CONTROL FOR STRESS PERIOD   28   TIME STEP   19
 
 SOLVING FOR HEAD 
                                                   Max.-Head-Change                         Max.-Flux-Residual
  Residual-Control   Outer-Iter.   Inner-Iter.     Column Row Layer    Maximum-Head-Change  Column Row Layer    Maximum-Flux-Residual          L2-NORM 
          0                 1           2             4    7     1       0.8561659433E-02       4    7    1         0.4479575965E+00      0.1261272621E+01
          0                 2           2             4    7     1      -0.8328172317E-03       4    7    1        -0.4479584252E-01      0.1260921772E+00
          0                 3           1             4    7     1       0.5671175564E-04       4    7    1         0.3135709540E-02      0.8823202636E-02

    ------------------------------------------------
       NWT REQUIRED            3 OUTER ITERATIONS 
       AND A TOTAL OF          5 INNER ITERATIONS.
    ------------------------------------------------

 NO OUTPUT CONTROL FOR STRESS PERIOD   28   TIME STEP   20
 
 SOLVING FOR HEAD 
                                                   Max.-Head-Change                         Max.-Flux-Residual
  Residual-Control   Outer-Iter.   Inner-Iter.     Column Row Layer    Maximum-Head-Change  Column Row Layer    Maximum-Flux-Residual          L2-NORM 
          0                 1           2             4    7     1       0.8502483995E-02       4    7    1         0.4448450687E+00      0.1254173050E+01
          0                 2           2             4    7     1      -0.8270610539E-03       4    7    1        -0.4448458829E-01      0.1253870273E+00
          0                 3           1             4    7     1       0.5631978151E-04       4    7    1         0.3113921754E-02      0.8774318100E-02

    ------------------------------------------------
       NWT REQUIRED            3 OUTER ITERATIONS 
       AND A TOTAL OF          5 INNER ITERATIONS.
    ------------------------------------------------

 NO OUTPUT CONTROL FOR STRESS PERIOD   28   TIME STEP   21
 
 SOLVING FOR HEAD 
                                                   Max.-Head-Change                         Max.-Flux-Residual
  Residual-Control   Outer-Iter.   Inner-Iter.     Column Row Layer    Maximum-Head-Change  Column Row Layer    Maximum-Flux-Residual          L2-NORM 
          0                 1           2             4    7     1       0.8444144874E-02       4    7    1         0.4417768947E+00      0.1247255683E+01
          0                 2           2             4    7     1      -0.8213862271E-03       4    7    1        -0.4417776948E-01      0.1246991690E+00
          0                 3           1             4    7     1       0.5593334742E-04       4    7    1         0.3092444441E-02      0.8726510050E-02

    ------------------------------------------------
       NWT REQUIRED            3 OUTER ITERATIONS 
       AND A TOTAL OF          5 INNER ITERATIONS.
    ------------------------------------------------

 NO OUTPUT CONTROL FOR STRESS PERIOD   28   TIME STEP   22
 
 SOLVING FOR HEAD 
                                                   Max.-Head-Change                         Max.-Flux-Residual
  Residual-Control   Outer-Iter.   Inner-Iter.     Column Row Layer    Maximum-Head-Change  Column Row Layer    Maximum-Flux-Residual          L2-NORM 
          0                 1           2             4    7     1       0.8386487930E-02       4    7    1         0.4387447576E+00      0.1240513149E+01
          0                 2           2             4    7     1      -0.8157777582E-03       4    7    1        -0.4387455439E-01      0.1240285433E+00
          0                 3           1             4    7     1       0.5555143120E-04       4    7    1         0.3071219380E-02      0.8679936091E-02

    ------------------------------------------------
       NWT REQUIRED            3 OUTER ITERATIONS 
       AND A TOTAL OF          5 INNER ITERATIONS.
    ------------------------------------------------

 NO OUTPUT CONTROL FOR STRESS PERIOD   28   TIME STEP   23
 
 SOLVING FOR HEAD 
                                                   Max.-Head-Change                         Max.-Flux-Residual
  Residual-Control   Outer-Iter.   Inner-Iter.     Column Row Layer    Maximum-Head-Change  Column Row Layer    Maximum-Flux-Residual          L2-NORM 
          0                 1           2             4    7     1       0.8329501162E-02       4    7    1         0.4357479903E+00      0.1233921605E+01
          0                 2           2             4    7     1      -0.8102344797E-03       4    7    1        -0.4357487631E-01      0.1233722441E+00
          0                 3           1             4    7     1       0.5517395496E-04       4    7    1         0.3050241929E-02      0.8634090164E-02

    ------------------------------------------------
       NWT REQUIRED            3 OUTER ITERATIONS 
       AND A TOTAL OF          5 INNER ITERATIONS.
    ------------------------------------------------

 NO OUTPUT CONTROL FOR STRESS PERIOD   28   TIME STEP   24
 
 SOLVING FOR HEAD 
                                                   Max.-Head-Change                         Max.-Flux-Residual
  Residual-Control   Outer-Iter.   Inner-Iter.     Column Row Layer    Maximum-Head-Change  Column Row Layer    Maximum-Flux-Residual          L2-NORM 
          0                 1           2             4    7     1       0.8273171685E-02       4    7    1         0.4327859705E+00      0.1227478919E+01
          0                 2           2             4    7     1      -0.8047551376E-03       4    7    1        -0.4327867301E-01      0.1227305075E+00
          0                 3           1             4    7     1       0.5480083186E-04       4    7    1         0.3029507681E-02      0.8589421642E-02

    ------------------------------------------------
       NWT REQUIRED            3 OUTER ITERATIONS 
       AND A TOTAL OF          5 INNER ITERATIONS.
    ------------------------------------------------

 NO OUTPUT CONTROL FOR STRESS PERIOD   28   TIME STEP   25
 
 SOLVING FOR HEAD 
                                                   Max.-Head-Change                         Max.-Flux-Residual
  Residual-Control   Outer-Iter.   Inner-Iter.     Column Row Layer    Maximum-Head-Change  Column Row Layer    Maximum-Flux-Residual          L2-NORM 
          0                 1           2             4    7     1       0.8217485270E-02       4    7    1         0.4298580303E+00      0.1221160495E+01
          0                 2           2             4    7     1      -0.7993383489E-03       4    7    1        -0.4298587770E-01      0.1221010764E+00
          0                 3           1             4    7     1       0.5443196923E-04       4    7    1         0.3009012027E-02      0.8545676760E-02

    ------------------------------------------------
       NWT REQUIRED            3 OUTER ITERATIONS 
       AND A TOTAL OF          5 INNER ITERATIONS.
    ------------------------------------------------

 NO OUTPUT CONTROL FOR STRESS PERIOD   28   TIME STEP   26
 
 SOLVING FOR HEAD 
                                                   Max.-Head-Change                         Max.-Flux-Residual
  Residual-Control   Outer-Iter.   Inner-Iter.     Column Row Layer    Maximum-Head-Change  Column Row Layer    Maximum-Flux-Residual          L2-NORM 
          0                 1           2             4    7     1       0.8162432546E-02       4    7    1         0.4269634317E+00      0.1214966030E+01
          0                 2           2             4    7     1      -0.7939832012E-03       4    7    1        -0.4269641657E-01      0.1214835471E+00
          0                 3           1             4    7     1       0.5406730364E-04       4    7    1         0.2988749753E-02      0.8502575187E-02

    ------------------------------------------------
       NWT REQUIRED            3 OUTER ITERATIONS 
       AND A TOTAL OF          5 INNER ITERATIONS.
    ------------------------------------------------

 NO OUTPUT CONTROL FOR STRESS PERIOD   28   TIME STEP   27
 
 SOLVING FOR HEAD 
                                                   Max.-Head-Change                         Max.-Flux-Residual
  Residual-Control   Outer-Iter.   Inner-Iter.     Column Row Layer    Maximum-Head-Change  Column Row Layer    Maximum-Flux-Residual          L2-NORM 
          0                 1           2             4    7     1       0.8108134527E-02       4    7    1         0.4241090149E+00      0.1208889140E+01
          0                 2           2             4    7     1      -0.7887014660E-03       4    7    1        -0.4241097364E-01      0.1208775372E+00
          0                 3           1             4    7     1       0.5370763754E-04       4    7    1         0.2968768756E-02      0.8460321554E-02

    ------------------------------------------------
       NWT REQUIRED            3 OUTER ITERATIONS 
       AND A TOTAL OF          5 INNER ITERATIONS.
    ------------------------------------------------

 NO OUTPUT CONTROL FOR STRESS PERIOD   28   TIME STEP   28
 
 SOLVING FOR HEAD 
                                                   Max.-Head-Change                         Max.-Flux-Residual
  Residual-Control   Outer-Iter.   Inner-Iter.     Column Row Layer    Maximum-Head-Change  Column Row Layer    Maximum-Flux-Residual          L2-NORM 
          0                 1           2             4    7     1       0.8054438103E-02       4    7    1         0.4212864027E+00      0.1202913747E+01
          0                 2           2             4    7     1      -0.7834782503E-03       4    7    1        -0.4212871123E-01      0.1202814764E+00
          0                 3           1             4    7     1       0.5335195572E-04       4    7    1         0.2949010383E-02      0.8418757323E-02

    ------------------------------------------------
       NWT REQUIRED            3 OUTER ITERATIONS 
       AND A TOTAL OF          5 INNER ITERATIONS.
    ------------------------------------------------

 NO OUTPUT CONTROL FOR STRESS PERIOD   28   TIME STEP   29
 
 SOLVING FOR HEAD 
                                                   Max.-Head-Change                         Max.-Flux-Residual
  Residual-Control   Outer-Iter.   Inner-Iter.     Column Row Layer    Maximum-Head-Change  Column Row Layer    Maximum-Flux-Residual          L2-NORM 
          0                 1           2             4    7     1       0.8001335111E-02       4    7    1         0.4184949821E+00      0.1197044754E+01
          0                 2           2             4    7     1      -0.7783127595E-03       4    7    1        -0.4184956797E-01      0.1196959114E+00
          0                 3           1             4    7     1       0.5300020504E-04       4    7    1         0.2929470361E-02      0.8378073529E-02

    ------------------------------------------------
       NWT REQUIRED            3 OUTER ITERATIONS 
       AND A TOTAL OF          5 INNER ITERATIONS.
    ------------------------------------------------

 NO OUTPUT CONTROL FOR STRESS PERIOD   28   TIME STEP   30



 STREAM LISTING     PERIOD     28   STEP       30

 LAYER ROW COL. STREAM  RCH.  FLOW INTO     FLOW TO   FLOW OUT OF   OVRLND.     DIRECT     STREAM       STREAM     STREAM     STREAM   STREAMBED  STREAMBED
                SEG.NO.  NO.  STRM. RCH.    AQUIFER    STRM. RCH.    RUNOFF     PRECIP       ET          HEAD       DEPTH      WIDTH   CONDCTNC.   GRADIENT

   1    1    1     1     1    2.8874E+01  2.6239E-01   2.8612E+01  0.000E+00  0.000E+00  0.000E+00  1.09428E+03  1.233E+00  1.377E+01  6.198E-02  1.411E+00
   1    2    2     1     2    2.8612E+01  4.0592E-01   2.8206E+01  0.000E+00  0.000E+00  0.000E+00  1.08929E+03  1.229E+00  1.371E+01  9.599E-02  1.410E+00
   1    3    3     1     3    2.8206E+01  3.4575E-01   2.7860E+01  0.000E+00  0.000E+00  0.000E+00  1.08364E+03  1.224E+00  1.364E+01  8.186E-02  1.408E+00
   1    3    4     1     4    2.7860E+01  3.1803E-01   2.7542E+01  0.000E+00  0.000E+00  0.000E+00  1.07863E+03  1.219E+00  1.358E+01  7.538E-02  1.406E+00
   1    4    5     2     1    2.5542E+01  3.2904E-01   2.5213E+01  0.000E+00  0.000E+00  0.000E+00  1.07315E+03  1.218E+00  1.200E+01  7.800E-02  1.406E+00
   1    5    6     2     2    2.5213E+01  2.5260E-01   2.4960E+01  0.000E+00  0.000E+00  0.000E+00  1.06772E+03  1.210E+00  1.200E+01  6.000E-02  1.403E+00
   1    6    6     2     3    2.4960E+01  2.5217E-01   2.4708E+01  0.000E+00  0.000E+00  0.000E+00  1.06300E+03  1.203E+00  1.200E+01  6.000E-02  1.401E+00
   1    7    6     2     4    2.4708E+01  2.5172E-01   2.4457E+01  0.000E+00  0.000E+00  0.000E+00  1.05827E+03  1.195E+00  1.200E+01  6.000E-02  1.398E+00
   1    8    6     2     5    2.4457E+01  2.5128E-01   2.4205E+01  0.000E+00  0.000E+00  0.000E+00  1.05355E+03  1.188E+00  1.200E+01  6.000E-02  1.396E+00
   1    3    5     3     1    2.0000E+00  2.8252E-01   1.7175E+00  0.000E+00  0.000E+00  0.000E+00  1.07555E+03  1.909E+00  9.636E+00  7.227E-02  1.955E+00
   1    3    6     3     2    1.7175E+00  2.4905E-01   1.4684E+00  0.000E+00  0.000E+00  0.000E+00  1.07264E+03  1.727E+00  8.909E+00  6.682E-02  1.864E+00
   1    3    7     3     3    1.4684E+00  1.9718E-01   1.2712E+00  0.000E+00  0.000E+00  0.000E+00  1.06987E+03  1.555E+00  8.218E+00  5.547E-02  1.777E+00
   1    4    8     3     4    1.2712E+00  2.2567E-01   1.0456E+00  0.000E+00  0.000E+00  0.000E+00  1.06682E+03  1.364E+00  7.455E+00  6.709E-02  1.682E+00
   1    5    8     3     5    1.0456E+00  1.5790E-01   8.8768E-01  0.000E+00  0.000E+00  0.000E+00  1.06362E+03  1.164E+00  6.655E+00  4.991E-02  1.582E+00
   1    6    8     3     6    8.8768E-01  5.5980E-02   8.3170E-01  0.000E+00  0.000E+00  0.000E+00  1.06158E+03  1.036E+00  6.145E+00  1.844E-02  1.518E+00
   1    5   10     4     1    1.0000E+01  9.0919E-02   9.9091E+00  0.000E+00  0.000E+00  0.000E+00  1.07836E+03  6.368E-01  1.000E+01  2.500E-02  1.212E+00
   1    5    9     4     2    9.9091E+00  1.8158E-01   9.7275E+00  0.000E+00  0.000E+00  0.000E+00  1.07154E+03  6.315E-01  1.000E+01  5.000E-02  1.211E+00
   1    6    8     4     3    9.7275E+00  1.2689E-01   9.6006E+00  0.000E+00  0.000E+00  0.000E+00  1.06381E+03  6.256E-01  1.000E+01  3.500E-02  1.209E+00
   1    6    8     5     1    1.0432E+01  2.2686E-01   1.0205E+01  0.000E+00  0.000E+00  0.000E+00  1.05868E+03  6.790E-01  1.542E+01  6.166E-02  1.226E+00
   1    7    7     5     2    1.0205E+01  2.7894E-01   9.9265E+00  0.000E+00  0.000E+00  0.000E+00  1.05417E+03  6.732E-01  1.519E+01  7.594E-02  1.224E+00
   1    8    7     5     3    9.9265E+00  1.9221E-01   9.7343E+00  0.000E+00  0.000E+00  0.000E+00  1.04992E+03  6.676E-01  1.497E+01  5.241E-02  1.223E+00
   1    8    6     5     4    9.7343E+00  1.3577E-01   9.5985E+00  0.000E+00  0.000E+00  0.000E+00  1.04691E+03  6.637E-01  1.482E+01  3.706E-02  1.221E+00
   1    9    6     6     1    3.3804E+01  2.6759E-01   3.3536E+01  0.000E+00  0.000E+00  0.000E+00  1.04419E+03  1.460E+00  1.200E+01  6.000E-02  1.487E+00
   1   10    7     6     2    3.3536E+01  2.6717E-01   3.3269E+01  0.000E+00  0.000E+00  0.000E+00  1.03963E+03  1.453E+00  1.200E+01  6.000E-02  1.484E+00
   1   11    7     6     3    3.3269E+01  2.6676E-01   3.3002E+01  0.000E+00  0.000E+00  0.000E+00  1.03508E+03  1.446E+00  1.200E+01  6.000E-02  1.482E+00
   1   12    7     6     4    3.3002E+01  2.6634E-01   3.2736E+01  0.000E+00  0.000E+00  0.000E+00  1.03053E+03  1.439E+00  1.200E+01  6.000E-02  1.480E+00
   1   13    7     6     5    3.2736E+01  1.8084E-02   3.2718E+01  0.000E+00  0.000E+00  0.000E+00  1.02734E+03  1.435E+00  1.200E+01  2.400E-02  2.512E-01
   1   14    9     7     1    1.5000E+02  1.3848E+00   1.4862E+02  0.000E+00  0.000E+00  0.000E+00  1.03987E+03  2.288E+00  5.529E+01  5.593E-01  8.253E-01
   1   13    8     7     2    1.4862E+02  1.9909E+00   1.4662E+02  0.000E+00  0.000E+00  0.000E+00  1.03478E+03  2.279E+00  5.525E+01  6.147E-01  1.080E+00
   1   13    7     7     3    1.4662E+02  1.7294E+00   1.4489E+02  0.000E+00  0.000E+00  0.000E+00  1.02969E+03  2.269E+00  5.521E+01  5.584E-01  1.032E+00
   1   13    6     8     1    1.7761E+02  1.2051E+00   1.7641E+02  0.000E+00  0.000E+00  0.000E+00  1.02487E+03  2.997E+00  4.346E+01  4.429E-01  9.070E-01
   1   13    5     8     2    1.7641E+02  4.2064E-01   1.7599E+02  0.000E+00  0.000E+00  0.000E+00  1.01862E+03  2.992E+00  4.339E+01  4.421E-01  3.171E-01
   1   13    4     8     3    1.7599E+02 -1.6534E+00   1.7764E+02  0.000E+00  0.000E+00  0.000E+00  1.01237E+03  2.996E+00  4.344E+01  4.427E+00 -1.245E-01
   1   13    3     8     4    1.7764E+02 -3.2526E+00   1.8089E+02  0.000E+00  0.000E+00  0.000E+00  1.00614E+03  3.012E+00  4.367E+01  4.450E+00 -2.436E-01
   1   13    2     8     5    1.8089E+02 -2.4428E+00   1.8334E+02  0.000E+00  0.000E+00  0.000E+00  9.99904E+02  3.029E+00  4.393E+01  4.476E+00 -1.819E-01
   1   13    1     8     6    1.8334E+02 -1.9111E+00   1.8525E+02  0.000E+00  0.000E+00  0.000E+00  9.94918E+02  3.043E+00  4.412E+01  2.698E+00 -2.361E-01
   1    8    6     9     1    0.0000E+00  0.0000E+00   0.0000E+00  0.000E+00  0.000E+00  0.000E+00  1.07875E+03  0.000E+00  4.000E+00  0.000E+00  1.000E+00
   1    8    5     9     2    0.0000E+00  0.0000E+00   0.0000E+00  0.000E+00  0.000E+00  0.000E+00  1.07825E+03  0.000E+00  4.000E+00  0.000E+00  1.000E+00





UNSATURATED ZONE PACKAGE VOLUMETRIC BUDGET FOR  TIME STEP    30 STRESS PERIOD   28
  ------------------------------------------------------------------------------



     CUMULATIVE VOLUMES      L**3       RATES FOR THIS TIME STEP      L**3/T
     ------------------                 ------------------------

           IN:                                      IN:
           ---                                      ---
        INFILTRATION =  1101751155.7665          INFILTRATION =           0.8475

          OUT:                                     OUT:
          ----                                     ----
              UZF ET =   866178220.3918                UZF ET =           0.7500
        UZF RECHARGE =       73224.0000          UZF RECHARGE =       0.0000E+00

            IN - OUT =   235499711.3747              IN - OUT =       9.7500E-02

          STORAGE:                                 STORAGE:
          --------                                 --------
      STORAGE CHANGE =   235499919.2475        STORAGE CHANGE =       9.7500E-02

 PERCENT DISCREPANCY IS DIFFERENCE BETWEEN IN-OUT MINUS CHANGE IN STORAGE
 DIVIDED BY THE AVERAGE OF IN AND OUT TIMES 100

 PERCENT DISCREPANCY =          -0.00     PERCENT DISCREPANCY =           0.00






1
  VOLUMETRIC BUDGET FOR AGRICULTURAL FIELDS AT  END OF TIME STEP   30, STRESS PERIOD  28
  ------------------------------------------------------------------------------

     CUMULATIVE VOLUMES      L**3       RATES FOR THIS TIME STEP      L**3/T
     ------------------                 ------------------------

           IN:                                      IN:
           ---                                      ---
               AG WELLS  =   666412096.0000                 AG WELLS  =           0.0000
      DIVERSION SEGMENTS =   375163232.0000        DIVERSION SEGMENTS =           0.0000
       IRRIGATION PONDS  =           0.0000         IRRIGATION PONDS  =           0.0000
           GW IRRIGATION =           0.0000             GW IRRIGATION =           0.0000
           SW IRRIGATION =           0.0000             SW IRRIGATION =           0.0000
        SYSTEM LOSSES GW =           0.0000          SYSTEM LOSSES GW =           0.0000
        SYSTEM LOSSES SW =           0.0000          SYSTEM LOSSES SW =           0.0000

                TOTAL IN =  1041575296.0000                  TOTAL IN =           0.0000

          OUT:                                     OUT:
          ----                                     ----
               AG WELLS  =           0.0000                 AG WELLS  =           0.0000
      DIVERSION SEGMENTS =           0.0000        DIVERSION SEGMENTS =           0.0000
       IRRIGATION PONDS  =           0.0000         IRRIGATION PONDS  =           0.0000
           GW IRRIGATION =   666412096.0000             GW IRRIGATION =           0.0000
           SW IRRIGATION =   375170880.0000             SW IRRIGATION =           0.0000
        SYSTEM LOSSES GW =           0.0000          SYSTEM LOSSES GW =           0.0000
        SYSTEM LOSSES SW =           0.0000          SYSTEM LOSSES SW =           0.0000

               TOTAL OUT =  1041582976.0000                 TOTAL OUT =           0.0000

                IN - OUT =       -7680.0000                  IN - OUT =           0.0000

     PERCENT DISCREPANCY =          -0.00         PERCENT DISCREPANCY =           0.00



1
  VOLUMETRIC BUDGET FOR ENTIRE MODEL AT END OF TIME STEP   30, STRESS PERIOD  28
  ------------------------------------------------------------------------------

     CUMULATIVE VOLUMES      L**3       RATES FOR THIS TIME STEP      L**3/T
     ------------------                 ------------------------

           IN:                                      IN:
           ---                                      ---
             STORAGE     =  1049558464.0000               STORAGE     =           2.1598
       CONSTANT HEAD     =           0.0000         CONSTANT HEAD     =           0.0000
     HEAD DEP BOUNDS     =    20492736.0000       HEAD DEP BOUNDS     =           0.2891
      STREAM LEAKAGE     =   840510336.0000        STREAM LEAKAGE     =          12.8871
        UZF RECHARGE     =       73223.9531          UZF RECHARGE     =           0.0000
               GW ET     =           0.0000                 GW ET     =           0.0000
     SURFACE LEAKAGE     =           0.0000       SURFACE LEAKAGE     =           0.0000
           AG WELLS      =           0.0000             AG WELLS      =           0.0000

                TOTAL IN =  1910634752.0000                  TOTAL IN =          15.3360

          OUT:                                     OUT:
          ----                                     ----
             STORAGE     =   512211840.0000               STORAGE     =           5.7873
       CONSTANT HEAD     =           0.0000         CONSTANT HEAD     =           0.0000
     HEAD DEP BOUNDS     =    20461998.0000       HEAD DEP BOUNDS     =           0.2898
      STREAM LEAKAGE     =   711557952.0000        STREAM LEAKAGE     =           9.2600
        UZF RECHARGE     =           0.0000          UZF RECHARGE     =           0.0000
               GW ET     =           0.0000                 GW ET     =           0.0000
     SURFACE LEAKAGE     =           0.0000       SURFACE LEAKAGE     =           0.0000
           AG WELLS      =   666412096.0000             AG WELLS      =           0.0000

               TOTAL OUT =  1910643968.0000                 TOTAL OUT =          15.3371

                IN - OUT =       -9216.0000                  IN - OUT =      -1.0338E-03

     PERCENT DISCREPANCY =          -0.00         PERCENT DISCREPANCY =          -0.01






         TIME SUMMARY AT END OF TIME STEP   30 IN STRESS PERIOD   28
                    SECONDS     MINUTES      HOURS       DAYS        YEARS
                    -----------------------------------------------------------
   TIME STEP LENGTH  87667.      1461.1      24.352      1.0147     2.77799E-03
 STRESS PERIOD TIME 2.63000E+06  43833.      730.56      30.440     8.33397E-02
         TOTAL TIME 7.10967E+07 1.18494E+06  19749.      822.88      2.2529    
1
1
                            STRESS PERIOD NO.   29, LENGTH =   2630000.    
                            -----------------------------------------------

                              NUMBER OF TIME STEPS =    30

                               MULTIPLIER FOR DELT =     1.000

                            INITIAL TIME STEP SIZE =   87666.66    

 REUSING NON-PARAMETER GHB CELLS FROM LAST STRESS PERIOD

      2 GHB CELLS

 REUSING STREAM SEGMENT DATA FROM LAST STRESS PERIOD



            AREAL INFILTRATION RATE
 READING ON UNIT   19 WITH FORMAT: (FREE)              

            1           2           3           4           5           6           7           8           9          10
 ........................................................................................................................
   1   1.0000E-10  2.0000E-10   0.000       0.000       0.000       0.000       0.000       0.000       0.000       0.000    
   2   2.0000E-10  1.0000E-10  2.0000E-10   0.000       0.000      8.0000E-10  8.0000E-10  5.0000E-10   0.000       0.000    
   3    0.000      5.0000E-10  1.0000E-10  1.0000E-10  8.0000E-10  8.0000E-10  5.0000E-10  5.0000E-10   0.000       0.000    
   4   8.0000E-10  5.0000E-10  1.0000E-10  1.0000E-10  1.0000E-10  1.0000E-10  1.0000E-10  1.0000E-10  2.0000E-10   0.000    
   5   8.0000E-10  5.0000E-10  1.0000E-10  1.0000E-10  1.0000E-10  1.0000E-10  1.0000E-10  1.0000E-10  1.0000E-10  1.0000E-10
   6   8.0000E-10  5.0000E-10  5.0000E-10  2.0000E-10  2.0000E-10  1.0000E-10  1.0000E-10  1.0000E-10  1.0000E-10  5.0000E-10
   7   8.0000E-10  5.0000E-10  5.0000E-10  2.0000E-10  2.0000E-10  1.0000E-10  1.0000E-10  2.0000E-10  2.0000E-10   0.000    
   8    0.000      5.0000E-10  5.0000E-10  2.0000E-10  2.0000E-10  1.0000E-10  1.0000E-10  2.0000E-10  5.0000E-10   0.000    
   9    0.000      5.0000E-10  5.0000E-10  2.0000E-10  2.0000E-10  1.0000E-10  1.0000E-10  2.0000E-10  5.0000E-10   0.000    
  10    0.000      5.0000E-10  5.0000E-10  2.0000E-10  2.0000E-10  1.0000E-10  1.0000E-10  2.0000E-10  5.0000E-10  8.0000E-10
  11    0.000      1.0000E-10  1.0000E-10  1.0000E-10  1.0000E-10  1.0000E-10  1.0000E-10  2.0000E-10  5.0000E-10   0.000    
  12   1.0000E-10  1.0000E-10  1.0000E-10  1.0000E-10  1.0000E-10  1.0000E-10  1.0000E-10  1.0000E-10  2.0000E-10   0.000    
  13   1.0000E-10  1.0000E-10  2.0000E-10  2.0000E-10  2.0000E-10  2.0000E-10  2.0000E-10  1.0000E-10  1.0000E-10   0.000    
  14    0.000      2.0000E-10  5.0000E-10  5.0000E-10  5.0000E-10  5.0000E-10  5.0000E-10  2.0000E-10  1.0000E-10   0.000    
  15    0.000       0.000      8.0000E-10  8.0000E-10  8.0000E-10  8.0000E-10   0.000       0.000       0.000       0.000    

                  ET RATE =  2.500000E-08

 USING ET EXTINCTION DEPTH FROM PREVIOUS STRESS PERIOD. CURRENT PERIOD IS:      29

 USING EXTINCTION WATER CONTENT FROM PREVIOUS STRESS PERIOD. CURRENT PERIOD IS:      29

 USING AIR ENTRY PRESSURE FROM PREVIOUS STRESS PERIOD. CURRENT PERIOD IS:      29

 USING ROOT PRESSURE HEAD FROM PREVIOUS STRESS PERIOD. CURRENT PERIOD IS:      29

 USING ROOT ACTIVITY FROM PREVIOUS STRESS PERIOD. CURRENT PERIOD IS:      29

 PROCESSING AG STRESS PERIOD DATA

 READING AG STRESS PERIOD DATA

 READING IRRIGATION SEGMENT

 READING IRRIGATION WELL

 READING SUPPLEMENTAL WELL

 NO IRRPOND OR REUSING IRRPOND DATA FROM LAST STRESS PERIOD

 END PROCESSING AG STRESS PERIOD DATA OPTIONS
 
 SOLVING FOR HEAD 
                                                   Max.-Head-Change                         Max.-Flux-Residual
  Residual-Control   Outer-Iter.   Inner-Iter.     Column Row Layer    Maximum-Head-Change  Column Row Layer    Maximum-Flux-Residual          L2-NORM 
          0                 1           2             4    7     1       0.7948815762E-02       4    7    1         0.4157343301E+00      0.1191269605E+01
          0                 2           2             4    7     1      -0.7732040422E-03       4    7    1        -0.4157350164E-01      0.1191194602E+00
          0                 3           1             4    7     1       0.5265232042E-04       4    7    1         0.2910145722E-02      0.8337688057E-02

    ------------------------------------------------
       NWT REQUIRED            3 OUTER ITERATIONS 
       AND A TOTAL OF          5 INNER ITERATIONS.
    ------------------------------------------------

 NO OUTPUT CONTROL FOR STRESS PERIOD   29   TIME STEP    1
 
 SOLVING FOR HEAD 
                                                   Max.-Head-Change                         Max.-Flux-Residual
  Residual-Control   Outer-Iter.   Inner-Iter.     Column Row Layer    Maximum-Head-Change  Column Row Layer    Maximum-Flux-Residual          L2-NORM 
          0                 1           2             4    7     1       0.7896738590E-02       4    7    1         0.4130039390E+00      0.1271763565E+01
          0                 2           2             4    7     1      -0.7681383385E-03       4    7    1        -0.4130046149E-01      0.1266023509E+00
          0                 3           1             4    7     1       0.5230736463E-04       4    7    1         0.2891032924E-02      0.8806900851E-02

    ------------------------------------------------
       NWT REQUIRED            3 OUTER ITERATIONS 
       AND A TOTAL OF          5 INNER ITERATIONS.
    ------------------------------------------------

 NO OUTPUT CONTROL FOR STRESS PERIOD   29   TIME STEP    2
 
 SOLVING FOR HEAD 
                                                   Max.-Head-Change                         Max.-Flux-Residual
  Residual-Control   Outer-Iter.   Inner-Iter.     Column Row Layer    Maximum-Head-Change  Column Row Layer    Maximum-Flux-Residual          L2-NORM 
          0                 1           2             4    7     1       0.7845201467E-02       4    7    1         0.4103037984E+00      0.1303772364E+01
          0                 2           2             4    7     1      -0.7631251668E-03       4    7    1        -0.4103044642E-01      0.1296412483E+00
          0                 3           1             4    7     1       0.5196598639E-04       4    7    1         0.2872131872E-02      0.9007981078E-02

    ------------------------------------------------
       NWT REQUIRED            3 OUTER ITERATIONS 
       AND A TOTAL OF          5 INNER ITERATIONS.
    ------------------------------------------------

 NO OUTPUT CONTROL FOR STRESS PERIOD   29   TIME STEP    3
 
 SOLVING FOR HEAD 
                                                   Max.-Head-Change                         Max.-Flux-Residual
  Residual-Control   Outer-Iter.   Inner-Iter.     Column Row Layer    Maximum-Head-Change  Column Row Layer    Maximum-Flux-Residual          L2-NORM 
          0                 1           2             4    7     1       0.7794065934E-02       4    7    1         0.4076243316E+00      0.1277779448E+01
          0                 2           2             4    7     1      -0.7581510590E-03       4    7    1        -0.4076249876E-01      0.1271347676E+00
          0                 3           1             4    7     1       0.5162726800E-04       4    7    1         0.2853375523E-02      0.8840098794E-02

    ------------------------------------------------
       NWT REQUIRED            3 OUTER ITERATIONS 
       AND A TOTAL OF          5 INNER ITERATIONS.
    ------------------------------------------------

 NO OUTPUT CONTROL FOR STRESS PERIOD   29   TIME STEP    4
 
 SOLVING FOR HEAD 
                                                   Max.-Head-Change                         Max.-Flux-Residual
  Residual-Control   Outer-Iter.   Inner-Iter.     Column Row Layer    Maximum-Head-Change  Column Row Layer    Maximum-Flux-Residual          L2-NORM 
          0                 1           2             4    7     1       0.7743336360E-02       4    7    1         0.4049656868E+00      0.1254711897E+01
          0                 2           2             4    7     1      -0.7532164401E-03       4    7    1        -0.4049663329E-01      0.1249088199E+00
          0                 3           1             4    7     1       0.5129123906E-04       4    7    1         0.2834764942E-02      0.8691678691E-02

    ------------------------------------------------
       NWT REQUIRED            3 OUTER ITERATIONS 
       AND A TOTAL OF          5 INNER ITERATIONS.
    ------------------------------------------------

 NO OUTPUT CONTROL FOR STRESS PERIOD   29   TIME STEP    5
 
 SOLVING FOR HEAD 
                                                   Max.-Head-Change                         Max.-Flux-Residual
  Residual-Control   Outer-Iter.   Inner-Iter.     Column Row Layer    Maximum-Head-Change  Column Row Layer    Maximum-Flux-Residual          L2-NORM 
          0                 1           2             4    7     1       0.7693012580E-02       4    7    1         0.4023280903E+00      0.1234157818E+01
          0                 2           2             4    7     1      -0.7483212943E-03       4    7    1        -0.4023287268E-01      0.1229262943E+00
          0                 3           1             4    7     1       0.5095789789E-04       4    7    1         0.2816301705E-02      0.8559696923E-02

    ------------------------------------------------
       NWT REQUIRED            3 OUTER ITERATIONS 
       AND A TOTAL OF          5 INNER ITERATIONS.
    ------------------------------------------------

 NO OUTPUT CONTROL FOR STRESS PERIOD   29   TIME STEP    6
 
 SOLVING FOR HEAD 
                                                   Max.-Head-Change                         Max.-Flux-Residual
  Residual-Control   Outer-Iter.   Inner-Iter.     Column Row Layer    Maximum-Head-Change  Column Row Layer    Maximum-Flux-Residual          L2-NORM 
          0                 1           2             4    7     1       0.7643227326E-02       4    7    1         0.3997188605E+00      0.1215777173E+01
          0                 2           2             4    7     1      -0.7434785324E-03       4    7    1        -0.3997194875E-01      0.1211503610E+00
          0                 3           1             4    7     1       0.5062812398E-04       4    7    1         0.2798037029E-02      0.8440825101E-02

    ------------------------------------------------
       NWT REQUIRED            3 OUTER ITERATIONS 
       AND A TOTAL OF          5 INNER ITERATIONS.
    ------------------------------------------------

 NO OUTPUT CONTROL FOR STRESS PERIOD   29   TIME STEP    7
 
 SOLVING FOR HEAD 
                                                   Max.-Head-Change                         Max.-Flux-Residual
  Residual-Control   Outer-Iter.   Inner-Iter.     Column Row Layer    Maximum-Head-Change  Column Row Layer    Maximum-Flux-Residual          L2-NORM 
          0                 1           2             4    7     1       0.7593844868E-02       4    7    1         0.3971302257E+00      0.1199272883E+01
          0                 2           2             4    7     1      -0.7386749520E-03       4    7    1        -0.3971308435E-01      0.1195555320E+00
          0                 3           1             4    7     1       0.5030101809E-04       4    7    1         0.2779916523E-02      0.8334791619E-02

    ------------------------------------------------
       NWT REQUIRED            3 OUTER ITERATIONS 
       AND A TOTAL OF          5 INNER ITERATIONS.
    ------------------------------------------------

 NO OUTPUT CONTROL FOR STRESS PERIOD   29   TIME STEP    8
 
 SOLVING FOR HEAD 
                                                   Max.-Head-Change                         Max.-Flux-Residual
  Residual-Control   Outer-Iter.   Inner-Iter.     Column Row Layer    Maximum-Head-Change  Column Row Layer    Maximum-Flux-Residual          L2-NORM 
          0                 1           2             4    7     1       0.7544864429E-02       4    7    1         0.3945624752E+00      0.1184377609E+01
          0                 2           2             4    7     1      -0.7339104772E-03       4    7    1        -0.3945630838E-01      0.1181134402E+00
          0                 3           1             4    7     1       0.4997657512E-04       4    7    1         0.2761942202E-02      0.8237495827E-02

    ------------------------------------------------
       NWT REQUIRED            3 OUTER ITERATIONS 
       AND A TOTAL OF          5 INNER ITERATIONS.
    ------------------------------------------------

 NO OUTPUT CONTROL FOR STRESS PERIOD   29   TIME STEP    9
 
 SOLVING FOR HEAD 
                                                   Max.-Head-Change                         Max.-Flux-Residual
  Residual-Control   Outer-Iter.   Inner-Iter.     Column Row Layer    Maximum-Head-Change  Column Row Layer    Maximum-Flux-Residual          L2-NORM 
          0                 1           2             4    7     1       0.7496284698E-02       4    7    1         0.3920155688E+00      0.1170867476E+01
          0                 2           2             4    7     1      -0.7291849799E-03       4    7    1        -0.3920161682E-01      0.1168039936E+00
          0                 3           1             4    7     1       0.4965478633E-04       4    7    1         0.2744113783E-02      0.8150065577E-02

    ------------------------------------------------
       NWT REQUIRED            3 OUTER ITERATIONS 
       AND A TOTAL OF          5 INNER ITERATIONS.
    ------------------------------------------------

 NO OUTPUT CONTROL FOR STRESS PERIOD   29   TIME STEP   10
 
 SOLVING FOR HEAD 
                                                   Max.-Head-Change                         Max.-Flux-Residual
  Residual-Control   Outer-Iter.   Inner-Iter.     Column Row Layer    Maximum-Head-Change  Column Row Layer    Maximum-Flux-Residual          L2-NORM 
          0                 1           2             4    7     1       0.7448241346E-02       4    7    1         0.3894967659E+00      0.1158550516E+01
          0                 2           2             4    7     1      -0.7245116586E-03       4    7    1        -0.3894973563E-01      0.1156087141E+00
          0                 3           1             4    7     1       0.4933655072E-04       4    7    1         0.2726482105E-02      0.8069761629E-02

    ------------------------------------------------
       NWT REQUIRED            3 OUTER ITERATIONS 
       AND A TOTAL OF          5 INNER ITERATIONS.
    ------------------------------------------------

 NO OUTPUT CONTROL FOR STRESS PERIOD   29   TIME STEP   11
 
 SOLVING FOR HEAD 
                                                   Max.-Head-Change                         Max.-Flux-Residual
  Residual-Control   Outer-Iter.   Inner-Iter.     Column Row Layer    Maximum-Head-Change  Column Row Layer    Maximum-Flux-Residual          L2-NORM 
          0                 1           2             4    7     1       0.7400592689E-02       4    7    1         0.3869984462E+00      0.1147271342E+01
          0                 2           2             4    7     1      -0.7198767301E-03       4    7    1        -0.3869990276E-01      0.1145128099E+00
          0                 3           1             4    7     1       0.4902092951E-04       4    7    1         0.2708993804E-02      0.7996185155E-02

    ------------------------------------------------
       NWT REQUIRED            3 OUTER ITERATIONS 
       AND A TOTAL OF          5 INNER ITERATIONS.
    ------------------------------------------------

 NO OUTPUT CONTROL FOR STRESS PERIOD   29   TIME STEP   12
 
 SOLVING FOR HEAD 
                                                   Max.-Head-Change                         Max.-Flux-Residual
  Residual-Control   Outer-Iter.   Inner-Iter.     Column Row Layer    Maximum-Head-Change  Column Row Layer    Maximum-Flux-Residual          L2-NORM 
          0                 1           2             4    7     1       0.7353338079E-02       4    7    1         0.3845205908E+00      0.1136873803E+01
          0                 2           2             4    7     1      -0.7152801329E-03       4    7    1        -0.3845211638E-01      0.1135003452E+00
          0                 3           1             4    7     1       0.4870791858E-04       4    7    1         0.2691648769E-02      0.7928023725E-02

    ------------------------------------------------
       NWT REQUIRED            3 OUTER ITERATIONS 
       AND A TOTAL OF          5 INNER ITERATIONS.
    ------------------------------------------------

 NO OUTPUT CONTROL FOR STRESS PERIOD   29   TIME STEP   13
 
 SOLVING FOR HEAD 
                                                   Max.-Head-Change                         Max.-Flux-Residual
  Residual-Control   Outer-Iter.   Inner-Iter.     Column Row Layer    Maximum-Head-Change  Column Row Layer    Maximum-Flux-Residual          L2-NORM 
          0                 1           2             4    7     1       0.7306611531E-02       4    7    1         0.3820704939E+00      0.1127243114E+01
          0                 2           2             4    7     1      -0.7107349008E-03       4    7    1        -0.3820710582E-01      0.1125609993E+00
          0                 3           1             4    7     1       0.4839840485E-04       4    7    1         0.2674498029E-02      0.7863892166E-02

    ------------------------------------------------
       NWT REQUIRED            3 OUTER ITERATIONS 
       AND A TOTAL OF          5 INNER ITERATIONS.
    ------------------------------------------------

 NO OUTPUT CONTROL FOR STRESS PERIOD   29   TIME STEP   14
 
 SOLVING FOR HEAD 
                                                   Max.-Head-Change                         Max.-Flux-Residual
  Residual-Control   Outer-Iter.   Inner-Iter.     Column Row Layer    Maximum-Head-Change  Column Row Layer    Maximum-Flux-Residual          L2-NORM 
          0                 1           2             4    7     1       0.7260271607E-02       4    7    1         0.3796404486E+00      0.1118279422E+01
          0                 2           2             4    7     1      -0.7062272773E-03       4    7    1        -0.3796410044E-01      0.1116853898E+00
          0                 3           1             4    7     1       0.4809145275E-04       4    7    1         0.2657487656E-02      0.7805132777E-02

    ------------------------------------------------
       NWT REQUIRED            3 OUTER ITERATIONS 
       AND A TOTAL OF          5 INNER ITERATIONS.
    ------------------------------------------------

 NO OUTPUT CONTROL FOR STRESS PERIOD   29   TIME STEP   15
 
 SOLVING FOR HEAD 
                                                   Max.-Head-Change                         Max.-Flux-Residual
  Residual-Control   Outer-Iter.   Inner-Iter.     Column Row Layer    Maximum-Head-Change  Column Row Layer    Maximum-Flux-Residual          L2-NORM 
          0                 1           2             4    7     1       0.7214315426E-02       4    7    1         0.3772304490E+00      0.1109879776E+01
          0                 2           2             4    7     1      -0.7017569819E-03       4    7    1        -0.3772309967E-01      0.1108630976E+00
          0                 3           1             4    7     1       0.4778704241E-04       4    7    1         0.2640617605E-02      0.7748916926E-02

    ------------------------------------------------
       NWT REQUIRED            3 OUTER ITERATIONS 
       AND A TOTAL OF          5 INNER ITERATIONS.
    ------------------------------------------------

 NO OUTPUT CONTROL FOR STRESS PERIOD   29   TIME STEP   16
 
 SOLVING FOR HEAD 
                                                   Max.-Head-Change                         Max.-Flux-Residual
  Residual-Control   Outer-Iter.   Inner-Iter.     Column Row Layer    Maximum-Head-Change  Column Row Layer    Maximum-Flux-Residual          L2-NORM 
          0                 1           2             4    7     1       0.7168745786E-02       4    7    1         0.3748403460E+00      0.1101983757E+01
          0                 2           2             4    7     1      -0.6973242860E-03       4    7    1        -0.3748408854E-01      0.1100897116E+00
          0                 3           1             4    7     1       0.4748519239E-04       4    7    1         0.2623886823E-02      0.7696485350E-02

    ------------------------------------------------
       NWT REQUIRED            3 OUTER ITERATIONS 
       AND A TOTAL OF          5 INNER ITERATIONS.
    ------------------------------------------------

 NO OUTPUT CONTROL FOR STRESS PERIOD   29   TIME STEP   17
 
 SOLVING FOR HEAD 
                                                   Max.-Head-Change                         Max.-Flux-Residual
  Residual-Control   Outer-Iter.   Inner-Iter.     Column Row Layer    Maximum-Head-Change  Column Row Layer    Maximum-Flux-Residual          L2-NORM 
          0                 1           2             4    7     1       0.7123692362E-02       4    7    1         0.3724776128E+00      0.1094523350E+01
          0                 2           2             4    7     1      -0.6929418047E-03       4    7    1        -0.3724781442E-01      0.1093571788E+00
          0                 3           1             4    7     1       0.4718676171E-04       4    7    1         0.2607347637E-02      0.7646274419E-02

    ------------------------------------------------
       NWT REQUIRED            3 OUTER ITERATIONS 
       AND A TOTAL OF          5 INNER ITERATIONS.
    ------------------------------------------------

 NO OUTPUT CONTROL FOR STRESS PERIOD   29   TIME STEP   18
 
 SOLVING FOR HEAD 
                                                   Max.-Head-Change                         Max.-Flux-Residual
  Residual-Control   Outer-Iter.   Inner-Iter.     Column Row Layer    Maximum-Head-Change  Column Row Layer    Maximum-Flux-Residual          L2-NORM 
          0                 1           2             4    7     1       0.7079014244E-02       4    7    1         0.3701343164E+00      0.1087440515E+01
          0                 2           2             4    7     1      -0.6885958304E-03       4    7    1        -0.3701348399E-01      0.1086614319E+00
          0                 3           1             4    7     1       0.4689081765E-04       4    7    1         0.2590944526E-02      0.7598840031E-02

    ------------------------------------------------
       NWT REQUIRED            3 OUTER ITERATIONS 
       AND A TOTAL OF          5 INNER ITERATIONS.
    ------------------------------------------------

 NO OUTPUT CONTROL FOR STRESS PERIOD   29   TIME STEP   19
 
 SOLVING FOR HEAD 
                                                   Max.-Head-Change                         Max.-Flux-Residual
  Residual-Control   Outer-Iter.   Inner-Iter.     Column Row Layer    Maximum-Head-Change  Column Row Layer    Maximum-Flux-Residual          L2-NORM 
          0                 1           2             4    7     1       0.7034841809E-02       4    7    1         0.3678178075E+00      0.1080685893E+01
          0                 2           2             4    7     1      -0.6842990457E-03       4    7    1        -0.3678183235E-01      0.1079945572E+00
          0                 3           1             4    7     1       0.4659822227E-04       4    7    1         0.2574728897E-02      0.7552152870E-02

    ------------------------------------------------
       NWT REQUIRED            3 OUTER ITERATIONS 
       AND A TOTAL OF          5 INNER ITERATIONS.
    ------------------------------------------------

 NO OUTPUT CONTROL FOR STRESS PERIOD   29   TIME STEP   20
 
 SOLVING FOR HEAD 
                                                   Max.-Head-Change                         Max.-Flux-Residual
  Residual-Control   Outer-Iter.   Inner-Iter.     Column Row Layer    Maximum-Head-Change  Column Row Layer    Maximum-Flux-Residual          L2-NORM 
          0                 1           2             4    7     1       0.6991035788E-02       4    7    1         0.3655201892E+00      0.1074217944E+01
          0                 2           2             4    7     1      -0.6800379025E-03       4    7    1        -0.3655206973E-01      0.1073575532E+00
          0                 3           1             4    7     1       0.4630805433E-04       4    7    1         0.2558645505E-02      0.7509237429E-02

    ------------------------------------------------
       NWT REQUIRED            3 OUTER ITERATIONS 
       AND A TOTAL OF          5 INNER ITERATIONS.
    ------------------------------------------------

 NO OUTPUT CONTROL FOR STRESS PERIOD   29   TIME STEP   21
 
 SOLVING FOR HEAD 
                                                   Max.-Head-Change                         Max.-Flux-Residual
  Residual-Control   Outer-Iter.   Inner-Iter.     Column Row Layer    Maximum-Head-Change  Column Row Layer    Maximum-Flux-Residual          L2-NORM 
          0                 1           2             4    7     1       0.6947594999E-02       4    7    1         0.3632415688E+00      0.1068013683E+01
          0                 2           2             4    7     1      -0.6758122871E-03       4    7    1        -0.3632420694E-01      0.1067447089E+00
          0                 3           1             4    7     1       0.4602030566E-04       4    7    1         0.2542695109E-02      0.7466855683E-02

    ------------------------------------------------
       NWT REQUIRED            3 OUTER ITERATIONS 
       AND A TOTAL OF          5 INNER ITERATIONS.
    ------------------------------------------------

 NO OUTPUT CONTROL FOR STRESS PERIOD   29   TIME STEP   22
 
 SOLVING FOR HEAD 
                                                   Max.-Head-Change                         Max.-Flux-Residual
  Residual-Control   Outer-Iter.   Inner-Iter.     Column Row Layer    Maximum-Head-Change  Column Row Layer    Maximum-Flux-Residual          L2-NORM 
          0                 1           2             4    7     1       0.6904516315E-02       4    7    1         0.3609818852E+00      0.1062028936E+01
          0                 2           2             4    7     1      -0.6716218947E-03       4    7    1        -0.3609823784E-01      0.1061532130E+00
          0                 3           1             4    7     1       0.4573495556E-04       4    7    1         0.2526877264E-02      0.7426235894E-02

    ------------------------------------------------
       NWT REQUIRED            3 OUTER ITERATIONS 
       AND A TOTAL OF          5 INNER ITERATIONS.
    ------------------------------------------------

 NO OUTPUT CONTROL FOR STRESS PERIOD   29   TIME STEP   23
 
 SOLVING FOR HEAD 
                                                   Max.-Head-Change                         Max.-Flux-Residual
  Residual-Control   Outer-Iter.   Inner-Iter.     Column Row Layer    Maximum-Head-Change  Column Row Layer    Maximum-Flux-Residual          L2-NORM 
          0                 1           2             4    7     1       0.6861934117E-02       4    7    1         0.3587483050E+00      0.1056248401E+01
          0                 2           2             4    7     1      -0.6674797972E-03       4    7    1        -0.3587487910E-01      0.1055808568E+00
          0                 3           1             4    7     1       0.4545289404E-04       4    7    1         0.2511242159E-02      0.7386527651E-02

    ------------------------------------------------
       NWT REQUIRED            3 OUTER ITERATIONS 
       AND A TOTAL OF          5 INNER ITERATIONS.
    ------------------------------------------------

 NO OUTPUT CONTROL FOR STRESS PERIOD   29   TIME STEP   24
 
 SOLVING FOR HEAD 
                                                   Max.-Head-Change                         Max.-Flux-Residual
  Residual-Control   Outer-Iter.   Inner-Iter.     Column Row Layer    Maximum-Head-Change  Column Row Layer    Maximum-Flux-Residual          L2-NORM 
          0                 1           2             4    7     1       0.6819705111E-02       4    7    1         0.3565331380E+00      0.1050646070E+01
          0                 2           2             4    7     1      -0.6633720558E-03       4    7    1        -0.3565336167E-01      0.1050259134E+00
          0                 3           1             4    7     1       0.4517317238E-04       4    7    1         0.2495735951E-02      0.7348157583E-02

    ------------------------------------------------
       NWT REQUIRED            3 OUTER ITERATIONS 
       AND A TOTAL OF          5 INNER ITERATIONS.
    ------------------------------------------------

 NO OUTPUT CONTROL FOR STRESS PERIOD   29   TIME STEP   25
 
 SOLVING FOR HEAD 
                                                   Max.-Head-Change                         Max.-Flux-Residual
  Residual-Control   Outer-Iter.   Inner-Iter.     Column Row Layer    Maximum-Head-Change  Column Row Layer    Maximum-Flux-Residual          L2-NORM 
          0                 1           2             4    7     1       0.6777960073E-02       4    7    1         0.3543436126E+00      0.1045198554E+01
          0                 2           2             4    7     1      -0.6593113916E-03       4    7    1        -0.3543440845E-01      0.1044853657E+00
          0                 3           1             4    7     1       0.4489665599E-04       4    7    1         0.2480409220E-02      0.7310776780E-02

    ------------------------------------------------
       NWT REQUIRED            3 OUTER ITERATIONS 
       AND A TOTAL OF          5 INNER ITERATIONS.
    ------------------------------------------------

 NO OUTPUT CONTROL FOR STRESS PERIOD   29   TIME STEP   26
 
 SOLVING FOR HEAD 
                                                   Max.-Head-Change                         Max.-Flux-Residual
  Residual-Control   Outer-Iter.   Inner-Iter.     Column Row Layer    Maximum-Head-Change  Column Row Layer    Maximum-Flux-Residual          L2-NORM 
          0                 1           2             4    7     1       0.6736556439E-02       4    7    1         0.3521718512E+00      0.1039899753E+01
          0                 2           2             4    7     1      -0.6552839364E-03       4    7    1        -0.3521723159E-01      0.1039595938E+00
          0                 3           1             4    7     1       0.4462240149E-04       4    7    1         0.2465206838E-02      0.7274344236E-02

    ------------------------------------------------
       NWT REQUIRED            3 OUTER ITERATIONS 
       AND A TOTAL OF          5 INNER ITERATIONS.
    ------------------------------------------------

 NO OUTPUT CONTROL FOR STRESS PERIOD   29   TIME STEP   27
 
 SOLVING FOR HEAD 
                                                   Max.-Head-Change                         Max.-Flux-Residual
  Residual-Control   Outer-Iter.   Inner-Iter.     Column Row Layer    Maximum-Head-Change  Column Row Layer    Maximum-Flux-Residual          L2-NORM 
          0                 1           2             4    7     1       0.6695494220E-02       4    7    1         0.3500177910E+00      0.1034730089E+01
          0                 2           2             4    7     1      -0.6512896922E-03       4    7    1        -0.3500182491E-01      0.1034461418E+00
          0                 3           1             4    7     1       0.4435040816E-04       4    7    1         0.2450128361E-02      0.7238714649E-02

    ------------------------------------------------
       NWT REQUIRED            3 OUTER ITERATIONS 
       AND A TOTAL OF          5 INNER ITERATIONS.
    ------------------------------------------------

 NO OUTPUT CONTROL FOR STRESS PERIOD   29   TIME STEP   28
 
 SOLVING FOR HEAD 
                                                   Max.-Head-Change                         Max.-Flux-Residual
  Residual-Control   Outer-Iter.   Inner-Iter.     Column Row Layer    Maximum-Head-Change  Column Row Layer    Maximum-Flux-Residual          L2-NORM 
          0                 1           2             4    7     1       0.6654906206E-02       4    7    1         0.3478887621E+00      0.1029679889E+01
          0                 2           2             4    7     1      -0.6473415751E-03       4    7    1        -0.3478892135E-01      0.1029439782E+00
          0                 3           1             4    7     1       0.4408155620E-04       4    7    1         0.2435225115E-02      0.7203862339E-02

    ------------------------------------------------
       NWT REQUIRED            3 OUTER ITERATIONS 
       AND A TOTAL OF          5 INNER ITERATIONS.
    ------------------------------------------------

 NO OUTPUT CONTROL FOR STRESS PERIOD   29   TIME STEP   29
 
 SOLVING FOR HEAD 
                                                   Max.-Head-Change                         Max.-Flux-Residual
  Residual-Control   Outer-Iter.   Inner-Iter.     Column Row Layer    Maximum-Head-Change  Column Row Layer    Maximum-Flux-Residual          L2-NORM 
          0                 1           2             4    7     1       0.6614729998E-02       4    7    1         0.3457769906E+00      0.1053235624E+01
          0                 2           2             4    7     1      -0.6434335150E-03       4    7    1        -0.3457774350E-01      0.1051980498E+00
          0                 3           1             4    7     1       0.4381543166E-04       4    7    1         0.2420442668E-02      0.7352503493E-02

    ------------------------------------------------
       NWT REQUIRED            3 OUTER ITERATIONS 
       AND A TOTAL OF          5 INNER ITERATIONS.
    ------------------------------------------------

 NO OUTPUT CONTROL FOR STRESS PERIOD   29   TIME STEP   30



 STREAM LISTING     PERIOD     29   STEP       30

 LAYER ROW COL. STREAM  RCH.  FLOW INTO     FLOW TO   FLOW OUT OF   OVRLND.     DIRECT     STREAM       STREAM     STREAM     STREAM   STREAMBED  STREAMBED
                SEG.NO.  NO.  STRM. RCH.    AQUIFER    STRM. RCH.    RUNOFF     PRECIP       ET          HEAD       DEPTH      WIDTH   CONDCTNC.   GRADIENT

   1    1    1     1     1    1.8581E+01  2.1154E-01   1.8369E+01  0.000E+00  0.000E+00  0.000E+00  1.09412E+03  1.075E+00  1.154E+01  5.191E-02  1.358E+00
   1    2    2     1     2    1.8369E+01  3.2630E-01   1.8043E+01  0.000E+00  0.000E+00  0.000E+00  1.08913E+03  1.070E+00  1.145E+01  8.016E-02  1.357E+00
   1    3    3     1     3    1.8043E+01  2.7702E-01   1.7766E+01  0.000E+00  0.000E+00  0.000E+00  1.08348E+03  1.065E+00  1.136E+01  6.814E-02  1.355E+00
   1    3    4     1     4    1.7766E+01  2.5406E-01   1.7512E+01  0.000E+00  0.000E+00  0.000E+00  1.07847E+03  1.061E+00  1.127E+01  6.256E-02  1.354E+00
   1    4    5     2     1    1.5512E+01  3.0432E-01   1.5207E+01  0.000E+00  0.000E+00  0.000E+00  1.07284E+03  9.015E-01  1.200E+01  7.800E-02  1.301E+00
   1    5    6     2     2    1.5207E+01  2.3352E-01   1.4974E+01  0.000E+00  0.000E+00  0.000E+00  1.06740E+03  8.920E-01  1.200E+01  6.000E-02  1.297E+00
   1    6    6     2     3    1.4974E+01  2.3302E-01   1.4741E+01  0.000E+00  0.000E+00  0.000E+00  1.06268E+03  8.837E-01  1.200E+01  6.000E-02  1.295E+00
   1    7    6     2     4    1.4741E+01  2.3252E-01   1.4508E+01  0.000E+00  0.000E+00  0.000E+00  1.05795E+03  8.754E-01  1.200E+01  6.000E-02  1.292E+00
   1    8    6     2     5    1.4508E+01  2.3202E-01   1.4276E+01  0.000E+00  0.000E+00  0.000E+00  1.05323E+03  8.670E-01  1.200E+01  6.000E-02  1.289E+00
   1    3    5     3     1    2.0000E+00  2.8252E-01   1.7175E+00  0.000E+00  0.000E+00  0.000E+00  1.07555E+03  1.909E+00  9.636E+00  7.227E-02  1.955E+00
   1    3    6     3     2    1.7175E+00  2.4905E-01   1.4684E+00  0.000E+00  0.000E+00  0.000E+00  1.07264E+03  1.727E+00  8.909E+00  6.682E-02  1.864E+00
   1    3    7     3     3    1.4684E+00  1.9718E-01   1.2712E+00  0.000E+00  0.000E+00  0.000E+00  1.06987E+03  1.555E+00  8.218E+00  5.547E-02  1.777E+00
   1    4    8     3     4    1.2712E+00  2.2567E-01   1.0456E+00  0.000E+00  0.000E+00  0.000E+00  1.06682E+03  1.364E+00  7.455E+00  6.709E-02  1.682E+00
   1    5    8     3     5    1.0456E+00  1.5790E-01   8.8768E-01  0.000E+00  0.000E+00  0.000E+00  1.06362E+03  1.164E+00  6.655E+00  4.991E-02  1.582E+00
   1    6    8     3     6    8.8768E-01  5.5980E-02   8.3170E-01  0.000E+00  0.000E+00  0.000E+00  1.06158E+03  1.036E+00  6.145E+00  1.844E-02  1.518E+00
   1    5   10     4     1    1.0000E+01  9.0919E-02   9.9091E+00  0.000E+00  0.000E+00  0.000E+00  1.07836E+03  6.368E-01  1.000E+01  2.500E-02  1.212E+00
   1    5    9     4     2    9.9091E+00  1.8158E-01   9.7275E+00  0.000E+00  0.000E+00  0.000E+00  1.07154E+03  6.315E-01  1.000E+01  5.000E-02  1.211E+00
   1    6    8     4     3    9.7275E+00  1.2689E-01   9.6006E+00  0.000E+00  0.000E+00  0.000E+00  1.06381E+03  6.256E-01  1.000E+01  3.500E-02  1.209E+00
   1    6    8     5     1    1.0432E+01  2.2686E-01   1.0205E+01  0.000E+00  0.000E+00  0.000E+00  1.05868E+03  6.790E-01  1.542E+01  6.166E-02  1.226E+00
   1    7    7     5     2    1.0205E+01  2.7894E-01   9.9265E+00  0.000E+00  0.000E+00  0.000E+00  1.05417E+03  6.732E-01  1.519E+01  7.594E-02  1.224E+00
   1    8    7     5     3    9.9265E+00  1.9221E-01   9.7343E+00  0.000E+00  0.000E+00  0.000E+00  1.04992E+03  6.676E-01  1.497E+01  5.241E-02  1.223E+00
   1    8    6     5     4    9.7343E+00  1.3577E-01   9.5985E+00  0.000E+00  0.000E+00  0.000E+00  1.04691E+03  6.637E-01  1.482E+01  3.706E-02  1.221E+00
   1    9    6     6     1    2.3875E+01  2.5104E-01   2.3624E+01  0.000E+00  0.000E+00  0.000E+00  1.04391E+03  1.184E+00  1.200E+01  6.000E-02  1.395E+00
   1   10    7     6     2    2.3624E+01  2.5059E-01   2.3373E+01  0.000E+00  0.000E+00  0.000E+00  1.03936E+03  1.177E+00  1.200E+01  6.000E-02  1.392E+00
   1   11    7     6     3    2.3373E+01  2.5014E-01   2.3123E+01  0.000E+00  0.000E+00  0.000E+00  1.03481E+03  1.169E+00  1.200E+01  6.000E-02  1.390E+00
   1   12    7     6     4    2.3123E+01  2.4969E-01   2.2873E+01  0.000E+00  0.000E+00  0.000E+00  1.03025E+03  1.161E+00  1.200E+01  6.000E-02  1.387E+00
   1   13    7     6     5    2.2873E+01  1.1709E-02   2.2862E+01  0.000E+00  0.000E+00  0.000E+00  1.02707E+03  1.157E+00  1.200E+01  2.400E-02  1.626E-01
   1   14    9     7     1    1.5000E+02  1.3862E+00   1.4861E+02  0.000E+00  0.000E+00  0.000E+00  1.03987E+03  2.288E+00  5.529E+01  5.593E-01  8.261E-01
   1   13    8     7     2    1.4861E+02  1.9945E+00   1.4662E+02  0.000E+00  0.000E+00  0.000E+00  1.03478E+03  2.279E+00  5.525E+01  6.147E-01  1.081E+00
   1   13    7     7     3    1.4662E+02  1.7361E+00   1.4488E+02  0.000E+00  0.000E+00  0.000E+00  1.02969E+03  2.269E+00  5.521E+01  5.584E-01  1.036E+00
   1   13    6     8     1    1.6774E+02  1.1639E+00   1.6658E+02  0.000E+00  0.000E+00  0.000E+00  1.02481E+03  2.934E+00  4.254E+01  4.335E-01  8.950E-01
   1   13    5     8     2    1.6658E+02  3.9462E-01   1.6619E+02  0.000E+00  0.000E+00  0.000E+00  1.01855E+03  2.928E+00  4.246E+01  4.327E-01  3.040E-01
   1   13    4     8     3    1.6619E+02 -1.6193E+00   1.6781E+02  0.000E+00  0.000E+00  0.000E+00  1.01231E+03  2.933E+00  4.252E+01  4.333E+00 -1.246E-01
   1   13    3     8     4    1.6781E+02 -3.1995E+00   1.7101E+02  0.000E+00  0.000E+00  0.000E+00  1.00607E+03  2.948E+00  4.275E+01  4.356E+00 -2.448E-01
   1   13    2     8     5    1.7101E+02 -2.3818E+00   1.7339E+02  0.000E+00  0.000E+00  0.000E+00  9.99841E+02  2.966E+00  4.301E+01  4.383E+00 -1.811E-01
   1   13    1     8     6    1.7339E+02 -1.9173E+00   1.7530E+02  0.000E+00  0.000E+00  0.000E+00  9.94855E+02  2.980E+00  4.321E+01  2.642E+00 -2.419E-01
   1    8    6     9     1    0.0000E+00  0.0000E+00   0.0000E+00  0.000E+00  0.000E+00  0.000E+00  1.07875E+03  0.000E+00  4.000E+00  0.000E+00  1.000E+00
   1    8    5     9     2    0.0000E+00  0.0000E+00   0.0000E+00  0.000E+00  0.000E+00  0.000E+00  1.07825E+03  0.000E+00  4.000E+00  0.000E+00  1.000E+00





UNSATURATED ZONE PACKAGE VOLUMETRIC BUDGET FOR  TIME STEP    30 STRESS PERIOD   29
  ------------------------------------------------------------------------------



     CUMULATIVE VOLUMES      L**3       RATES FOR THIS TIME STEP      L**3/T
     ------------------                 ------------------------

           IN:                                      IN:
           ---                                      ---
        INFILTRATION =  1103980080.6392          INFILTRATION =           0.8475

          OUT:                                     OUT:
          ----                                     ----
              UZF ET =   869627818.7328                UZF ET =           0.8475
        UZF RECHARGE =       73224.0000          UZF RECHARGE =       0.0000E+00

            IN - OUT =   234279037.9065              IN - OUT =       0.0000E+00

          STORAGE:                                 STORAGE:
          --------                                 --------
      STORAGE CHANGE =   234279245.7768        STORAGE CHANGE =      -1.7164E-13

 PERCENT DISCREPANCY IS DIFFERENCE BETWEEN IN-OUT MINUS CHANGE IN STORAGE
 DIVIDED BY THE AVERAGE OF IN AND OUT TIMES 100

 PERCENT DISCREPANCY =          -0.00     PERCENT DISCREPANCY =           0.00






1
  VOLUMETRIC BUDGET FOR AGRICULTURAL FIELDS AT  END OF TIME STEP   30, STRESS PERIOD  29
  ------------------------------------------------------------------------------

     CUMULATIVE VOLUMES      L**3       RATES FOR THIS TIME STEP      L**3/T
     ------------------                 ------------------------

           IN:                                      IN:
           ---                                      ---
               AG WELLS  =   666412096.0000                 AG WELLS  =           0.0000
      DIVERSION SEGMENTS =   375163232.0000        DIVERSION SEGMENTS =           0.0000
       IRRIGATION PONDS  =           0.0000         IRRIGATION PONDS  =           0.0000
           GW IRRIGATION =           0.0000             GW IRRIGATION =           0.0000
           SW IRRIGATION =           0.0000             SW IRRIGATION =           0.0000
        SYSTEM LOSSES GW =           0.0000          SYSTEM LOSSES GW =           0.0000
        SYSTEM LOSSES SW =           0.0000          SYSTEM LOSSES SW =           0.0000

                TOTAL IN =  1041575296.0000                  TOTAL IN =           0.0000

          OUT:                                     OUT:
          ----                                     ----
               AG WELLS  =           0.0000                 AG WELLS  =           0.0000
      DIVERSION SEGMENTS =           0.0000        DIVERSION SEGMENTS =           0.0000
       IRRIGATION PONDS  =           0.0000         IRRIGATION PONDS  =           0.0000
           GW IRRIGATION =   666412096.0000             GW IRRIGATION =           0.0000
           SW IRRIGATION =   375170880.0000             SW IRRIGATION =           0.0000
        SYSTEM LOSSES GW =           0.0000          SYSTEM LOSSES GW =           0.0000
        SYSTEM LOSSES SW =           0.0000          SYSTEM LOSSES SW =           0.0000

               TOTAL OUT =  1041582976.0000                 TOTAL OUT =           0.0000

                IN - OUT =       -7680.0000                  IN - OUT =           0.0000

     PERCENT DISCREPANCY =          -0.00         PERCENT DISCREPANCY =           0.00



1
  VOLUMETRIC BUDGET FOR ENTIRE MODEL AT END OF TIME STEP   30, STRESS PERIOD  29
  ------------------------------------------------------------------------------

     CUMULATIVE VOLUMES      L**3       RATES FOR THIS TIME STEP      L**3/T
     ------------------                 ------------------------

           IN:                                      IN:
           ---                                      ---
             STORAGE     =  1057397440.0000               STORAGE     =           2.0392
       CONSTANT HEAD     =           0.0000         CONSTANT HEAD     =           0.0000
     HEAD DEP BOUNDS     =    21253178.0000       HEAD DEP BOUNDS     =           0.2892
      STREAM LEAKAGE     =   871815552.0000        STREAM LEAKAGE     =          12.3943
        UZF RECHARGE     =       73223.9531          UZF RECHARGE     =           0.0000
               GW ET     =           0.0000                 GW ET     =           0.0000
     SURFACE LEAKAGE     =           0.0000       SURFACE LEAKAGE     =           0.0000
           AG WELLS      =           0.0000             AG WELLS      =           0.0000

                TOTAL IN =  1950539392.0000                  TOTAL IN =          14.7227

          OUT:                                     OUT:
          ----                                     ----
             STORAGE     =   525264864.0000               STORAGE     =           5.3176
       CONSTANT HEAD     =           0.0000         CONSTANT HEAD     =           0.0000
     HEAD DEP BOUNDS     =    21221458.0000       HEAD DEP BOUNDS     =           0.2881
      STREAM LEAKAGE     =   737651520.0000        STREAM LEAKAGE     =           9.1179
        UZF RECHARGE     =           0.0000          UZF RECHARGE     =           0.0000
               GW ET     =           0.0000                 GW ET     =           0.0000
     SURFACE LEAKAGE     =           0.0000       SURFACE LEAKAGE     =           0.0000
           AG WELLS      =   666412096.0000             AG WELLS      =           0.0000

               TOTAL OUT =  1950550016.0000                 TOTAL OUT =          14.7236

                IN - OUT =      -10624.0000                  IN - OUT =      -9.3174E-04

     PERCENT DISCREPANCY =          -0.00         PERCENT DISCREPANCY =          -0.01






         TIME SUMMARY AT END OF TIME STEP   30 IN STRESS PERIOD   29
                    SECONDS     MINUTES      HOURS       DAYS        YEARS
                    -----------------------------------------------------------
   TIME STEP LENGTH  87667.      1461.1      24.352      1.0147     2.77799E-03
 STRESS PERIOD TIME 2.63000E+06  43833.      730.56      30.440     8.33397E-02
         TOTAL TIME 7.37266E+07 1.22878E+06  20480.      853.32      2.3363    
1
1
                            STRESS PERIOD NO.   30, LENGTH =   2630000.    
                            -----------------------------------------------

                              NUMBER OF TIME STEPS =    30

                               MULTIPLIER FOR DELT =     1.000

                            INITIAL TIME STEP SIZE =   87666.66    

 REUSING NON-PARAMETER GHB CELLS FROM LAST STRESS PERIOD

      2 GHB CELLS

 REUSING STREAM SEGMENT DATA FROM LAST STRESS PERIOD



            AREAL INFILTRATION RATE
 READING ON UNIT   19 WITH FORMAT: (FREE)              

            1           2           3           4           5           6           7           8           9          10
 ........................................................................................................................
   1   1.0000E-10  2.0000E-10   0.000       0.000       0.000       0.000       0.000       0.000       0.000       0.000    
   2   2.0000E-10  1.0000E-10  2.0000E-10   0.000       0.000      8.0000E-10  8.0000E-10  5.0000E-10   0.000       0.000    
   3    0.000      5.0000E-10  1.0000E-10  1.0000E-10  8.0000E-10  8.0000E-10  5.0000E-10  5.0000E-10   0.000       0.000    
   4   8.0000E-10  5.0000E-10  1.0000E-10  1.0000E-10  1.0000E-10  1.0000E-10  1.0000E-10  1.0000E-10  2.0000E-10   0.000    
   5   8.0000E-10  5.0000E-10  1.0000E-10  1.0000E-10  1.0000E-10  1.0000E-10  1.0000E-10  1.0000E-10  1.0000E-10  1.0000E-10
   6   8.0000E-10  5.0000E-10  5.0000E-10  2.0000E-10  2.0000E-10  1.0000E-10  1.0000E-10  1.0000E-10  1.0000E-10  5.0000E-10
   7   8.0000E-10  5.0000E-10  5.0000E-10  2.0000E-10  2.0000E-10  1.0000E-10  1.0000E-10  2.0000E-10  2.0000E-10   0.000    
   8    0.000      5.0000E-10  5.0000E-10  2.0000E-10  2.0000E-10  1.0000E-10  1.0000E-10  2.0000E-10  5.0000E-10   0.000    
   9    0.000      5.0000E-10  5.0000E-10  2.0000E-10  2.0000E-10  1.0000E-10  1.0000E-10  2.0000E-10  5.0000E-10   0.000    
  10    0.000      5.0000E-10  5.0000E-10  2.0000E-10  2.0000E-10  1.0000E-10  1.0000E-10  2.0000E-10  5.0000E-10  8.0000E-10
  11    0.000      1.0000E-10  1.0000E-10  1.0000E-10  1.0000E-10  1.0000E-10  1.0000E-10  2.0000E-10  5.0000E-10   0.000    
  12   1.0000E-10  1.0000E-10  1.0000E-10  1.0000E-10  1.0000E-10  1.0000E-10  1.0000E-10  1.0000E-10  2.0000E-10   0.000    
  13   1.0000E-10  1.0000E-10  2.0000E-10  2.0000E-10  2.0000E-10  2.0000E-10  2.0000E-10  1.0000E-10  1.0000E-10   0.000    
  14    0.000      2.0000E-10  5.0000E-10  5.0000E-10  5.0000E-10  5.0000E-10  5.0000E-10  2.0000E-10  1.0000E-10   0.000    
  15    0.000       0.000      8.0000E-10  8.0000E-10  8.0000E-10  8.0000E-10   0.000       0.000       0.000       0.000    

                  ET RATE =  5.000000E-08

 USING ET EXTINCTION DEPTH FROM PREVIOUS STRESS PERIOD. CURRENT PERIOD IS:      30

 USING EXTINCTION WATER CONTENT FROM PREVIOUS STRESS PERIOD. CURRENT PERIOD IS:      30

 USING AIR ENTRY PRESSURE FROM PREVIOUS STRESS PERIOD. CURRENT PERIOD IS:      30

 USING ROOT PRESSURE HEAD FROM PREVIOUS STRESS PERIOD. CURRENT PERIOD IS:      30

 USING ROOT ACTIVITY FROM PREVIOUS STRESS PERIOD. CURRENT PERIOD IS:      30

 PROCESSING AG STRESS PERIOD DATA

 READING AG STRESS PERIOD DATA

 READING IRRIGATION SEGMENT

 READING IRRIGATION WELL

 READING SUPPLEMENTAL WELL

 NO IRRPOND OR REUSING IRRPOND DATA FROM LAST STRESS PERIOD

 END PROCESSING AG STRESS PERIOD DATA OPTIONS
 
 SOLVING FOR HEAD 
                                                   Max.-Head-Change                         Max.-Flux-Residual
  Residual-Control   Outer-Iter.   Inner-Iter.     Column Row Layer    Maximum-Head-Change  Column Row Layer    Maximum-Flux-Residual          L2-NORM 
          0                 1           2             4   13     1       0.6772685047E-02       4   13    1         0.3892748258E+00      0.1253279691E+01
          0                 2           2             4    7     1      -0.2382281119E-01       4    7    1        -0.1279369439E+01      0.3144626197E+01
          0                 3           2             4    7     1       0.2417497819E-01       4    7    1         0.1334555328E+01      0.3268259083E+01
          0                 4           2             4    7     1      -0.9619602894E-03       4    7    1        -0.5458429960E-01      0.1336741242E+00
          0                 5           1             4    7     1       0.1186682259E-04       4    7    1         0.6920682717E-03      0.1694829883E-02

    ------------------------------------------------
       NWT REQUIRED            5 OUTER ITERATIONS 
       AND A TOTAL OF          9 INNER ITERATIONS.
    ------------------------------------------------

 NO OUTPUT CONTROL FOR STRESS PERIOD   30   TIME STEP    1
 
 SOLVING FOR HEAD 
                                                   Max.-Head-Change                         Max.-Flux-Residual
  Residual-Control   Outer-Iter.   Inner-Iter.     Column Row Layer    Maximum-Head-Change  Column Row Layer    Maximum-Flux-Residual          L2-NORM 
          0                 1           2             4   13     1       0.9629511172E-02       4   13    1         0.5536253523E+00      0.1413992284E+01
          0                 2           2             4   13     1      -0.9269463382E-03       4   13    1        -0.5479515024E-01      0.1396802714E+00
          0                 3           1             4   13     1       0.6220734829E-04       4   13    1         0.3780902145E-02      0.9619524369E-02

    ------------------------------------------------
       NWT REQUIRED            3 OUTER ITERATIONS 
       AND A TOTAL OF          5 INNER ITERATIONS.
    ------------------------------------------------

 NO OUTPUT CONTROL FOR STRESS PERIOD   30   TIME STEP    2
 
 SOLVING FOR HEAD 
                                                   Max.-Head-Change                         Max.-Flux-Residual
  Residual-Control   Outer-Iter.   Inner-Iter.     Column Row Layer    Maximum-Head-Change  Column Row Layer    Maximum-Flux-Residual          L2-NORM 
          0                 1           2             4   13     1       0.8710525165E-02       4   13    1         0.5005259737E+00      0.1364193643E+01
          0                 2           2             4    7     1      -0.2381527145E-01       4    7    1        -0.1278961217E+01      0.3146635014E+01
          0                 3           2             4    7     1       0.2417445499E-01       4    7    1         0.1334526673E+01      0.3268224618E+01
          0                 4           2             4    7     1      -0.9619394703E-03       4    7    1        -0.5458312759E-01      0.1336726138E+00
          0                 5           1             4    7     1       0.1186792873E-04       4    7    1         0.6921328952E-03      0.1694998356E-02

    ------------------------------------------------
       NWT REQUIRED            5 OUTER ITERATIONS 
       AND A TOTAL OF          9 INNER ITERATIONS.
    ------------------------------------------------

 NO OUTPUT CONTROL FOR STRESS PERIOD   30   TIME STEP    3
 
 SOLVING FOR HEAD 
                                                   Max.-Head-Change                         Max.-Flux-Residual
  Residual-Control   Outer-Iter.   Inner-Iter.     Column Row Layer    Maximum-Head-Change  Column Row Layer    Maximum-Flux-Residual          L2-NORM 
          0                 1           2             4   13     1       0.8184200864E-02       4   13    1         0.4701225762E+00      0.1334781625E+01
          0                 2           2             4   13     1      -0.7877709834E-03       4   13    1        -0.4652720613E-01      0.1320914087E+00
          0                 3           2             4    7     1      -0.2313377105E-01       5    6    1        -0.1242894155E+01      0.3058772322E+01
          0                 4           2             4    7     1       0.2412296796E-01       5    6    1         0.1331710612E+01      0.3262031643E+01
          0                 5           2             4    7     1      -0.9601183319E-03       5    8    1        -0.5448132756E-01      0.1334511680E+00
          0                 6           1             4    7     1       0.1185426228E-04       5    8    1         0.6913543480E-03      0.1693458344E-02

    ------------------------------------------------
       NWT REQUIRED            6 OUTER ITERATIONS 
       AND A TOTAL OF         11 INNER ITERATIONS.
    ------------------------------------------------

 NO OUTPUT CONTROL FOR STRESS PERIOD   30   TIME STEP    4
 
 SOLVING FOR HEAD 
                                                   Max.-Head-Change                         Max.-Flux-Residual
  Residual-Control   Outer-Iter.   Inner-Iter.     Column Row Layer    Maximum-Head-Change  Column Row Layer    Maximum-Flux-Residual          L2-NORM 
          0                 1           2             4   13     1       0.7709999211E-02       4   13    1         0.4427382729E+00      0.1308303469E+01
          0                 2           2             4   13     1      -0.7421198538E-03       4   13    1        -0.4381649920E-01      0.1295518767E+00
          0                 3           2             4    7     1      -0.2313406789E-01       5    6    1        -0.1242901931E+01      0.3058784516E+01
          0                 4           2             4    7     1       0.2412302945E-01       5    6    1         0.1331713659E+01      0.3262039725E+01
          0                 5           2             4    7     1      -0.9601207794E-03       5    8    1        -0.5448145371E-01      0.1334514974E+00
          0                 6           1             4    7     1       0.1185293007E-04       5    8    1         0.6912764852E-03      0.1693259077E-02

    ------------------------------------------------
       NWT REQUIRED            6 OUTER ITERATIONS 
       AND A TOTAL OF         11 INNER ITERATIONS.
    ------------------------------------------------

 NO OUTPUT CONTROL FOR STRESS PERIOD   30   TIME STEP    5
 
 SOLVING FOR HEAD 
                                                   Max.-Head-Change                         Max.-Flux-Residual
  Residual-Control   Outer-Iter.   Inner-Iter.     Column Row Layer    Maximum-Head-Change  Column Row Layer    Maximum-Flux-Residual          L2-NORM 
          0                 1           2             4   13     1       0.7282501219E-02       4   13    1         0.4180586866E+00      0.1284418427E+01
          0                 2           2             4   13     1      -0.7009549597E-03       4   13    1        -0.4137293549E-01      0.1272603647E+00
          0                 3           2             4    7     1      -0.2313436078E-01       5    6    1        -0.1242909721E+01      0.3058797876E+01
          0                 4           2             4    7     1       0.2412309072E-01       5    6    1         0.1331716708E+01      0.3262047806E+01
          0                 5           2             4    7     1      -0.9601232182E-03       5    8    1        -0.5448158040E-01      0.1334518335E+00
          0                 6           1             4    7     1       0.1185432288E-04       5    8    1         0.6913575776E-03      0.1693460882E-02

    ------------------------------------------------
       NWT REQUIRED            6 OUTER ITERATIONS 
       AND A TOTAL OF         11 INNER ITERATIONS.
    ------------------------------------------------

 NO OUTPUT CONTROL FOR STRESS PERIOD   30   TIME STEP    6
 
 SOLVING FOR HEAD 
                                                   Max.-Head-Change                         Max.-Flux-Residual
  Residual-Control   Outer-Iter.   Inner-Iter.     Column Row Layer    Maximum-Head-Change  Column Row Layer    Maximum-Flux-Residual          L2-NORM 
          0                 1           2             4   13     1       0.6897194234E-02       4   13    1         0.3958218270E+00      0.1262805993E+01
          0                 2           2             4   13     1      -0.6638606162E-03       4   13    1        -0.3917169575E-01      0.1251867883E+00
          0                 3           2             4    7     1      -0.2313465077E-01       5    6    1        -0.1242917641E+01      0.3058812229E+01
          0                 4           2             4    7     1       0.2412315181E-01       5    6    1         0.1331719766E+01      0.3262055883E+01
          0                 5           2             4    7     1      -0.9601256496E-03       5    8    1        -0.5448170744E-01      0.1334521708E+00
          0                 6           1             4    7     1       0.1185435301E-04       5    8    1         0.6913591849E-03      0.1693465713E-02

    ------------------------------------------------
       NWT REQUIRED            6 OUTER ITERATIONS 
       AND A TOTAL OF         11 INNER ITERATIONS.
    ------------------------------------------------

 NO OUTPUT CONTROL FOR STRESS PERIOD   30   TIME STEP    7
 
 SOLVING FOR HEAD 
                                                   Max.-Head-Change                         Max.-Flux-Residual
  Residual-Control   Outer-Iter.   Inner-Iter.     Column Row Layer    Maximum-Head-Change  Column Row Layer    Maximum-Flux-Residual          L2-NORM 
          0                 1           2             4   13     1       0.6549567485E-02       4   13    1         0.3757658622E+00      0.1243209119E+01
          0                 2           2             4   13     1      -0.6303834766E-03       4   13    1        -0.3718575099E-01      0.1233037698E+00
          0                 3           2             4    7     1      -0.2313493702E-01       5    6    1        -0.1242925630E+01      0.3058827759E+01
          0                 4           2             4    7     1       0.2412321270E-01       5    6    1         0.1331722829E+01      0.3262063943E+01
          0                 5           2             4    7     1      -0.9601210700E-03       5    8    1        -0.5448143744E-01      0.1334515194E+00
          0                 6           1             4    7     1       0.1184475695E-04       5    8    1         0.6907994320E-03      0.1692093941E-02

    ------------------------------------------------
       NWT REQUIRED            6 OUTER ITERATIONS 
       AND A TOTAL OF         11 INNER ITERATIONS.
    ------------------------------------------------

 NO OUTPUT CONTROL FOR STRESS PERIOD   30   TIME STEP    8
 
 SOLVING FOR HEAD 
                                                   Max.-Head-Change                         Max.-Flux-Residual
  Residual-Control   Outer-Iter.   Inner-Iter.     Column Row Layer    Maximum-Head-Change  Column Row Layer    Maximum-Flux-Residual          L2-NORM 
          0                 1           2             4    7     1       0.6278312268E-02       4   13    1         0.3576840354E+00      0.1225376546E+01
          0                 2           2             4    7     1      -0.6107098386E-03       4   13    1        -0.3539546709E-01      0.1215918707E+00
          0                 3           2             4    7     1      -0.2313522060E-01       5    6    1        -0.1242933740E+01      0.3058843882E+01
          0                 4           2             4    7     1       0.2412327342E-01       5    6    1         0.1331725900E+01      0.3262072015E+01
          0                 5           2             4    7     1      -0.9601276887E-03       5    8    1        -0.5448180347E-01      0.1334524432E+00
          0                 6           1             4    7     1       0.1185165253E-04       5    8    1         0.6912014578E-03      0.1693082043E-02

    ------------------------------------------------
       NWT REQUIRED            6 OUTER ITERATIONS 
       AND A TOTAL OF         11 INNER ITERATIONS.
    ------------------------------------------------

 NO OUTPUT CONTROL FOR STRESS PERIOD   30   TIME STEP    9
 
 SOLVING FOR HEAD 
                                                   Max.-Head-Change                         Max.-Flux-Residual
  Residual-Control   Outer-Iter.   Inner-Iter.     Column Row Layer    Maximum-Head-Change  Column Row Layer    Maximum-Flux-Residual          L2-NORM 
          0                 1           2             4    7     1       0.6243309470E-02       4   13    1         0.3413685060E+00      0.1209108442E+01
          0                 2           2             4    7     1      -0.6073050119E-03       4   13    1        -0.3377931033E-01      0.1200274287E+00
          0                 3           2             4    7     1      -0.2313549710E-01       5    6    1        -0.1242941612E+01      0.3058860533E+01
          0                 4           2             4    7     1       0.2412332938E-01       5    6    1         0.1331728716E+01      0.3262079455E+01
          0                 5           2             4    7     1      -0.9601327170E-03       5    8    1        -0.5448207998E-01      0.1334531316E+00
          0                 6           1             4    7     1       0.1185444005E-04       5    8    1         0.6913639058E-03      0.1693479600E-02

    ------------------------------------------------
       NWT REQUIRED            6 OUTER ITERATIONS 
       AND A TOTAL OF         11 INNER ITERATIONS.
    ------------------------------------------------

 NO OUTPUT CONTROL FOR STRESS PERIOD   30   TIME STEP   10
 
 SOLVING FOR HEAD 
                                                   Max.-Head-Change                         Max.-Flux-Residual
  Residual-Control   Outer-Iter.   Inner-Iter.     Column Row Layer    Maximum-Head-Change  Column Row Layer    Maximum-Flux-Residual          L2-NORM 
          0                 1           2             4    7     1       0.6208818052E-02       4   13    1         0.3266401697E+00      0.1194220425E+01
          0                 2           2             4    7     1      -0.6039496524E-03       4    7    1        -0.3243935979E-01      0.1185959954E+00
          0                 3           2             4    7     1      -0.2313577490E-01       5    6    1        -0.1242949855E+01      0.3058878299E+01
          0                 4           2             4    7     1       0.2412338979E-01       5    6    1         0.1331731796E+01      0.3262087515E+01
          0                 5           2             4    7     1      -0.9601281182E-03       5    8    1        -0.5448181090E-01      0.1334524872E+00
          0                 6           1             4    7     1       0.1184756956E-04       5    8    1         0.6909631243E-03      0.1692499473E-02

    ------------------------------------------------
       NWT REQUIRED            6 OUTER ITERATIONS 
       AND A TOTAL OF         11 INNER ITERATIONS.
    ------------------------------------------------

 NO OUTPUT CONTROL FOR STRESS PERIOD   30   TIME STEP   11
 
 SOLVING FOR HEAD 
                                                   Max.-Head-Change                         Max.-Flux-Residual
  Residual-Control   Outer-Iter.   Inner-Iter.     Column Row Layer    Maximum-Head-Change  Column Row Layer    Maximum-Flux-Residual          L2-NORM 
          0                 1           2             4    7     1       0.6174822997E-02       4    7    1         0.3226046602E+00      0.1180556752E+01
          0                 2           2             4    7     1      -0.6006431286E-03       4    7    1        -0.3226053946E-01      0.1172803447E+00
          0                 3           2             4    7     1      -0.2313604654E-01       5    6    1        -0.1242957997E+01      0.3058896205E+01
          0                 4           2             4    7     1       0.2412344764E-01       5    6    1         0.1331734751E+01      0.3262095232E+01
          0                 5           2             4    7     1      -0.9601304209E-03       5    8    1        -0.5448193406E-01      0.1334528025E+00
          0                 6           1             4    7     1       0.1184487266E-04       5    8    1         0.6908057476E-03      0.1692114855E-02

    ------------------------------------------------
       NWT REQUIRED            6 OUTER ITERATIONS 
       AND A TOTAL OF         11 INNER ITERATIONS.
    ------------------------------------------------

 NO OUTPUT CONTROL FOR STRESS PERIOD   30   TIME STEP   12
 
 SOLVING FOR HEAD 
                                                   Max.-Head-Change                         Max.-Flux-Residual
  Residual-Control   Outer-Iter.   Inner-Iter.     Column Row Layer    Maximum-Head-Change  Column Row Layer    Maximum-Flux-Residual          L2-NORM 
          0                 1           2             4    7     1       0.6141039430E-02       4    7    1         0.3208273895E+00      0.1167972029E+01
          0                 2           2             4    7     1      -0.5973569004E-03       4    7    1        -0.3208281183E-01      0.1160680072E+00
          0                 3           2             4    7     1      -0.2313631484E-01       5    6    1        -0.1242966083E+01      0.3058915009E+01
          0                 4           2             4    7     1       0.2412350313E-01       5    6    1         0.1331737582E+01      0.3262102686E+01
          0                 5           2             4    7     1      -0.9601396326E-03       5    8    1        -0.5448244973E-01      0.1334540852E+00
          0                 6           1             4    7     1       0.1185452518E-04       5    8    1         0.6913686018E-03      0.1693491902E-02

    ------------------------------------------------
       NWT REQUIRED            6 OUTER ITERATIONS 
       AND A TOTAL OF         11 INNER ITERATIONS.
    ------------------------------------------------

 NO OUTPUT CONTROL FOR STRESS PERIOD   30   TIME STEP   13
 
 SOLVING FOR HEAD 
                                                   Max.-Head-Change                         Max.-Flux-Residual
  Residual-Control   Outer-Iter.   Inner-Iter.     Column Row Layer    Maximum-Head-Change  Column Row Layer    Maximum-Flux-Residual          L2-NORM 
          0                 1           2             4    7     1       0.6107867241E-02       4    7    1         0.3190830743E+00      0.1156346880E+01
          0                 2           2             4    7     1      -0.5941301430E-03       4    7    1        -0.3190837977E-01      0.1149470382E+00
          0                 3           2             4    7     1      -0.2313658123E-01       5    6    1        -0.1242974390E+01      0.3058934224E+01
          0                 4           2             4    7     1       0.2412356213E-01       5    6    1         0.1331740627E+01      0.3262110609E+01
          0                 5           2             4    7     1      -0.9601433812E-03       5    8    1        -0.5448265595E-01      0.1334545962E+00
          0                 6           1             4    7     1       0.1185457144E-04       5    8    1         0.6913712143E-03      0.1693496458E-02

    ------------------------------------------------
       NWT REQUIRED            6 OUTER ITERATIONS 
       AND A TOTAL OF         11 INNER ITERATIONS.
    ------------------------------------------------

 NO OUTPUT CONTROL FOR STRESS PERIOD   30   TIME STEP   14
 
 SOLVING FOR HEAD 
                                                   Max.-Head-Change                         Max.-Flux-Residual
  Residual-Control   Outer-Iter.   Inner-Iter.     Column Row Layer    Maximum-Head-Change  Column Row Layer    Maximum-Flux-Residual          L2-NORM 
          0                 1           2             4    7     1       0.6075021150E-02       4    7    1         0.3173557979E+00      0.1145577090E+01
          0                 2           2             4    7     1      -0.5909351065E-03       4    7    1        -0.3173565162E-01      0.1139067659E+00
          0                 3           2             4    7     1      -0.2313684543E-01       5    6    1        -0.1242982733E+01      0.3058954098E+01
          0                 4           2             4    7     1       0.2412361813E-01       5    6    1         0.1331743516E+01      0.3262118146E+01
          0                 5           2             4    7     1      -0.9601442096E-03       5    8    1        -0.5448269698E-01      0.1334547188E+00
          0                 6           1             4    7     1       0.1185458209E-04       5    8    1         0.6913717484E-03      0.1693502081E-02

    ------------------------------------------------
       NWT REQUIRED            6 OUTER ITERATIONS 
       AND A TOTAL OF         11 INNER ITERATIONS.
    ------------------------------------------------

 NO OUTPUT CONTROL FOR STRESS PERIOD   30   TIME STEP   15
 
 SOLVING FOR HEAD 
                                                   Max.-Head-Change                         Max.-Flux-Residual
  Residual-Control   Outer-Iter.   Inner-Iter.     Column Row Layer    Maximum-Head-Change  Column Row Layer    Maximum-Flux-Residual          L2-NORM 
          0                 1           2             4    7     1       0.6042489022E-02       4    7    1         0.3156454292E+00      0.1135561100E+01
          0                 2           2             4    7     1      -0.5877703336E-03       4    7    1        -0.3156459939E-01      0.1129388665E+00
          0                 3           2             4    7     1      -0.2313710560E-01       5    6    1        -0.1242991005E+01      0.3058974142E+01
          0                 4           2             4    7     1       0.2412367316E-01       5    6    1         0.1331746360E+01      0.3262125570E+01
          0                 5           2             4    7     1      -0.9601463999E-03       5    8    1        -0.5448281583E-01      0.1334550205E+00
          0                 6           1             4    7     1       0.1185324596E-04       5    8    1         0.6912937740E-03      0.1693309476E-02

    ------------------------------------------------
       NWT REQUIRED            6 OUTER ITERATIONS 
       AND A TOTAL OF         11 INNER ITERATIONS.
    ------------------------------------------------

 NO OUTPUT CONTROL FOR STRESS PERIOD   30   TIME STEP   16
 
 SOLVING FOR HEAD 
                                                   Max.-Head-Change                         Max.-Flux-Residual
  Residual-Control   Outer-Iter.   Inner-Iter.     Column Row Layer    Maximum-Head-Change  Column Row Layer    Maximum-Flux-Residual          L2-NORM 
          0                 1           2             4    7     1       0.6010398580E-02       4    7    1         0.3139586708E+00      0.1126226066E+01
          0                 2           2             4    7     1      -0.5846490776E-03       4    7    1        -0.3139593791E-01      0.1120359981E+00
          0                 3           2             4    7     1      -0.2313736220E-01       5    6    1        -0.1242999275E+01      0.3058994401E+01
          0                 4           2             4    7     1       0.2412372798E-01       5    6    1         0.1331749204E+01      0.3262132975E+01
          0                 5           2             4    7     1      -0.9601485816E-03       5    8    1        -0.5448293452E-01      0.1334553214E+00
          0                 6           1             4    7     1       0.1185463596E-04       5    8    1         0.6913747493E-03      0.1693509044E-02

    ------------------------------------------------
       NWT REQUIRED            6 OUTER ITERATIONS 
       AND A TOTAL OF         11 INNER ITERATIONS.
    ------------------------------------------------

 NO OUTPUT CONTROL FOR STRESS PERIOD   30   TIME STEP   17
 
 SOLVING FOR HEAD 
                                                   Max.-Head-Change                         Max.-Flux-Residual
  Residual-Control   Outer-Iter.   Inner-Iter.     Column Row Layer    Maximum-Head-Change  Column Row Layer    Maximum-Flux-Residual          L2-NORM 
          0                 1           2             4    7     1       0.5978739702E-02       4    7    1         0.3122948122E+00      0.1117502084E+01
          0                 2           2             4    7     1      -0.5815695247E-03       4    7    1        -0.3122955155E-01      0.1111907534E+00
          0                 3           2             4    7     1      -0.2313761397E-01       5    6    1        -0.1243007468E+01      0.3059014730E+01
          0                 4           2             4    7     1       0.2412378034E-01       5    6    1         0.1331751923E+01      0.3262140057E+01
          0                 5           2             4    7     1      -0.9601436630E-03       5    8    1        -0.5448265085E-01      0.1334546340E+00
          0                 6           1             4    7     1       0.1184776133E-04       5    8    1         0.6909737890E-03      0.1692526042E-02

    ------------------------------------------------
       NWT REQUIRED            6 OUTER ITERATIONS 
       AND A TOTAL OF         11 INNER ITERATIONS.
    ------------------------------------------------

 NO OUTPUT CONTROL FOR STRESS PERIOD   30   TIME STEP   18
 
 SOLVING FOR HEAD 
                                                   Max.-Head-Change                         Max.-Flux-Residual
  Residual-Control   Outer-Iter.   Inner-Iter.     Column Row Layer    Maximum-Head-Change  Column Row Layer    Maximum-Flux-Residual          L2-NORM 
          0                 1           2             4    7     1       0.5947363874E-02       4    7    1         0.3106459991E+00      0.1109313818E+01
          0                 2           2             4    7     1      -0.5785175052E-03       4    7    1        -0.3106466976E-01      0.1103964540E+00
          0                 3           2             4    7     1      -0.2313786606E-01       5    6    1        -0.1243015858E+01      0.3059035667E+01
          0                 4           2             4    7     1       0.2412383491E-01       5    6    1         0.1331754775E+01      0.3262147453E+01
          0                 5           2             4    7     1      -0.9601500364E-03       5    8    1        -0.5448300823E-01      0.1334555276E+00
          0                 6           1             4    7     1       0.1185192798E-04       5    8    1         0.6912167446E-03      0.1693121530E-02

    ------------------------------------------------
       NWT REQUIRED            6 OUTER ITERATIONS 
       AND A TOTAL OF         11 INNER ITERATIONS.
    ------------------------------------------------

 NO OUTPUT CONTROL FOR STRESS PERIOD   30   TIME STEP   19
 
 SOLVING FOR HEAD 
                                                   Max.-Head-Change                         Max.-Flux-Residual
  Residual-Control   Outer-Iter.   Inner-Iter.     Column Row Layer    Maximum-Head-Change  Column Row Layer    Maximum-Flux-Residual          L2-NORM 
          0                 1           2             4    7     1       0.5916396574E-02       4    7    1         0.3090191932E+00      0.1101611931E+01
          0                 2           2             4    7     1      -0.5755045381E-03       4    7    1        -0.3090195184E-01      0.1096479928E+00
          0                 3           2             4    7     1      -0.2313811391E-01       5    6    1        -0.1243024183E+01      0.3059056939E+01
          0                 4           2             4    7     1       0.2412388706E-01       5    6    1         0.1331757504E+01      0.3262154525E+01
          0                 5           2             4    7     1      -0.9601549131E-03       5    8    1        -0.5448328122E-01      0.1334562041E+00
          0                 6           1             4    7     1       0.1185471393E-04       5    8    1         0.6913791442E-03      0.1693518775E-02

    ------------------------------------------------
       NWT REQUIRED            6 OUTER ITERATIONS 
       AND A TOTAL OF         11 INNER ITERATIONS.
    ------------------------------------------------

 NO OUTPUT CONTROL FOR STRESS PERIOD   30   TIME STEP   20
 
 SOLVING FOR HEAD 
                                                   Max.-Head-Change                         Max.-Flux-Residual
  Residual-Control   Outer-Iter.   Inner-Iter.     Column Row Layer    Maximum-Head-Change  Column Row Layer    Maximum-Flux-Residual          L2-NORM 
          0                 1           2             4    7     1       0.5885692874E-02       4    7    1         0.3074062376E+00      0.1094352528E+01
          0                 2           2             4    7     1      -0.5725185852E-03       4    7    1        -0.3074069271E-01      0.1089423118E+00
          0                 3           2             4    7     1      -0.2313836074E-01       5    6    1        -0.1243032561E+01      0.3059078139E+01
          0                 4           2             4    7     1       0.2412394132E-01       5    6    1         0.1331760356E+01      0.3262161898E+01
          0                 5           2             4    7     1      -0.9601570731E-03       5    8    1        -0.5448340026E-01      0.1334565082E+00
          0                 6           1             4    7     1       0.1185474059E-04       5    8    1         0.6913806478E-03      0.1693523077E-02

    ------------------------------------------------
       NWT REQUIRED            6 OUTER ITERATIONS 
       AND A TOTAL OF         11 INNER ITERATIONS.
    ------------------------------------------------

 NO OUTPUT CONTROL FOR STRESS PERIOD   30   TIME STEP   21
 
 SOLVING FOR HEAD 
                                                   Max.-Head-Change                         Max.-Flux-Residual
  Residual-Control   Outer-Iter.   Inner-Iter.     Column Row Layer    Maximum-Head-Change  Column Row Layer    Maximum-Flux-Residual          L2-NORM 
          0                 1           2             4    7     1       0.5855248272E-02       4    7    1         0.3058069491E+00      0.1087485212E+01
          0                 2           2             4    7     1      -0.5695571495E-03       4    7    1        -0.3058076344E-01      0.1082742130E+00
          0                 3           2             4    7     1      -0.2313860434E-01       5    6    1        -0.1243040926E+01      0.3059099625E+01
          0                 4           2             4    7     1       0.2412399322E-01       5    6    1         0.1331763087E+01      0.3262168961E+01
          0                 5           2             4    7     1      -0.9601563376E-03       5    8    1        -0.5448335524E-01      0.1334564062E+00
          0                 6           1             4    7     1       0.1185200617E-04       5    8    1         0.6912211347E-03      0.1693132375E-02

    ------------------------------------------------
       NWT REQUIRED            6 OUTER ITERATIONS 
       AND A TOTAL OF         11 INNER ITERATIONS.
    ------------------------------------------------

 NO OUTPUT CONTROL FOR STRESS PERIOD   30   TIME STEP   22
 
 SOLVING FOR HEAD 
                                                   Max.-Head-Change                         Max.-Flux-Residual
  Residual-Control   Outer-Iter.   Inner-Iter.     Column Row Layer    Maximum-Head-Change  Column Row Layer    Maximum-Flux-Residual          L2-NORM 
          0                 1           2             4    7     1       0.5825328765E-02       4    7    1         0.3042357581E+00      0.1080979191E+01
          0                 2           2             4    7     1      -0.5666465144E-03       4    7    1        -0.3042362905E-01      0.1076404568E+00
          0                 3           2             4    7     1      -0.2313884470E-01       5    6    1        -0.1243049310E+01      0.3059121179E+01
          0                 4           2             4    7     1       0.2412404494E-01       5    6    1         0.1331765820E+01      0.3262176012E+01
          0                 5           2             4    7     1      -0.9601583961E-03       5    8    1        -0.5448346920E-01      0.1334566939E+00
          0                 6           1             4    7     1       0.1185203137E-04       5    8    1         0.6912225742E-03      0.1693133980E-02

    ------------------------------------------------
       NWT REQUIRED            6 OUTER ITERATIONS 
       AND A TOTAL OF         11 INNER ITERATIONS.
    ------------------------------------------------

 NO OUTPUT CONTROL FOR STRESS PERIOD   30   TIME STEP   23
 
 SOLVING FOR HEAD 
                                                   Max.-Head-Change                         Max.-Flux-Residual
  Residual-Control   Outer-Iter.   Inner-Iter.     Column Row Layer    Maximum-Head-Change  Column Row Layer    Maximum-Flux-Residual          L2-NORM 
          0                 1           2             4    7     1       0.5795510969E-02       4    7    1         0.3026697973E+00      0.1074788438E+01
          0                 2           2             4    7     1      -0.5637463259E-03       4    7    1        -0.3026704739E-01      0.1070363299E+00
          0                 3           2             4    7     1      -0.2313908379E-01       5    6    1        -0.1243057661E+01      0.3059142874E+01
          0                 4           2             4    7     1       0.2412409659E-01       5    6    1         0.1331768550E+01      0.3262183054E+01
          0                 5           2             4    7     1      -0.9601632528E-03       5    8    1        -0.5448374211E-01      0.1334573683E+00
          0                 6           1             4    7     1       0.1185481665E-04       5    8    1         0.6913849882E-03      0.1693536008E-02

    ------------------------------------------------
       NWT REQUIRED            6 OUTER ITERATIONS 
       AND A TOTAL OF         11 INNER ITERATIONS.
    ------------------------------------------------

 NO OUTPUT CONTROL FOR STRESS PERIOD   30   TIME STEP   24
 
 SOLVING FOR HEAD 
                                                   Max.-Head-Change                         Max.-Flux-Residual
  Residual-Control   Outer-Iter.   Inner-Iter.     Column Row Layer    Maximum-Head-Change  Column Row Layer    Maximum-Flux-Residual          L2-NORM 
          0                 1           2             4    7     1       0.5766202454E-02       4    7    1         0.3011311058E+00      0.1068901012E+01
          0                 2           2             4    7     1      -0.5608954004E-03       4    7    1        -0.3011317782E-01      0.1064615959E+00
          0                 3           2             4    7     1      -0.2313931752E-01       5    6    1        -0.1243065907E+01      0.3059164391E+01
          0                 4           2             4    7     1       0.2412414718E-01       5    6    1         0.1331771233E+01      0.3262189971E+01
          0                 5           2             4    7     1      -0.9601666671E-03       5    8    1        -0.5448393345E-01      0.1334578506E+00
          0                 6           1             4    7     1       0.1185485865E-04       5    8    1         0.6913874251E-03      0.1693532279E-02

    ------------------------------------------------
       NWT REQUIRED            6 OUTER ITERATIONS 
       AND A TOTAL OF         11 INNER ITERATIONS.
    ------------------------------------------------

 NO OUTPUT CONTROL FOR STRESS PERIOD   30   TIME STEP   25
 
 SOLVING FOR HEAD 
                                                   Max.-Head-Change                         Max.-Flux-Residual
  Residual-Control   Outer-Iter.   Inner-Iter.     Column Row Layer    Maximum-Head-Change  Column Row Layer    Maximum-Flux-Residual          L2-NORM 
          0                 1           2             4    7     1       0.5737117968E-02       4    7    1         0.2996041560E+00      0.1063279664E+01
          0                 2           2             4    7     1      -0.5580662673E-03       4    7    1        -0.2996048245E-01      0.1059117318E+00
          0                 3           2             4    7     1      -0.2313954975E-01       5    6    1        -0.1243074205E+01      0.3059186234E+01
          0                 4           2             4    7     1       0.2412419482E-01       5    6    1         0.1331773761E+01      0.3262196497E+01
          0                 5           2             4    7     1      -0.9601643615E-03       5    8    1        -0.5448380064E-01      0.1334575331E+00
          0                 6           1             4    7     1       0.1185210497E-04       5    8    1         0.6912267950E-03      0.1693147937E-02

    ------------------------------------------------
       NWT REQUIRED            6 OUTER ITERATIONS 
       AND A TOTAL OF         11 INNER ITERATIONS.
    ------------------------------------------------

 NO OUTPUT CONTROL FOR STRESS PERIOD   30   TIME STEP   26
 
 SOLVING FOR HEAD 
                                                   Max.-Head-Change                         Max.-Flux-Residual
  Residual-Control   Outer-Iter.   Inner-Iter.     Column Row Layer    Maximum-Head-Change  Column Row Layer    Maximum-Flux-Residual          L2-NORM 
          0                 1           2             4    7     1       0.5708252642E-02       4    7    1         0.2980888218E+00      0.1057905622E+01
          0                 2           2             4    7     1      -0.5552581757E-03       4    7    1        -0.2980893378E-01      0.1053852621E+00
          0                 3           2             4    7     1      -0.2313978525E-01       5    6    1        -0.1243082687E+01      0.3059208694E+01
          0                 4           2             4    7     1       0.2412424990E-01       5    6    1         0.1331776700E+01      0.3262204021E+01
          0                 5           2             4    7     1      -0.9601707554E-03       5    8    1        -0.5448416148E-01      0.1334584207E+00
          0                 6           1             4    7     1       0.1185490940E-04       5    8    1         0.6913903117E-03      0.1693544328E-02

    ------------------------------------------------
       NWT REQUIRED            6 OUTER ITERATIONS 
       AND A TOTAL OF         11 INNER ITERATIONS.
    ------------------------------------------------

 NO OUTPUT CONTROL FOR STRESS PERIOD   30   TIME STEP   27
 
 SOLVING FOR HEAD 
                                                   Max.-Head-Change                         Max.-Flux-Residual
  Residual-Control   Outer-Iter.   Inner-Iter.     Column Row Layer    Maximum-Head-Change  Column Row Layer    Maximum-Flux-Residual          L2-NORM 
          0                 1           2             4    7     1       0.5679739123E-02       4    7    1         0.2965921829E+00      0.1052746876E+01
          0                 2           2             4    7     1      -0.5524843054E-03       4    7    1        -0.2965925466E-01      0.1048797704E+00
          0                 3           2             4    7     1      -0.2314001171E-01       5    6    1        -0.1243090860E+01      0.3059230251E+01
          0                 4           2             4    7     1       0.2412429646E-01       5    6    1         0.1331779179E+01      0.3262210413E+01
          0                 5           2             4    7     1      -0.9601698078E-03       5    8    1        -0.5448410608E-01      0.1334582973E+00
          0                 6           1             4    7     1       0.1185217195E-04       5    8    1         0.6912306696E-03      0.1693152056E-02

    ------------------------------------------------
       NWT REQUIRED            6 OUTER ITERATIONS 
       AND A TOTAL OF         11 INNER ITERATIONS.
    ------------------------------------------------

 NO OUTPUT CONTROL FOR STRESS PERIOD   30   TIME STEP   28
 
 SOLVING FOR HEAD 
                                                   Max.-Head-Change                         Max.-Flux-Residual
  Residual-Control   Outer-Iter.   Inner-Iter.     Column Row Layer    Maximum-Head-Change  Column Row Layer    Maximum-Flux-Residual          L2-NORM 
          0                 1           2             4    7     1       0.5651566134E-02       4    7    1         0.2951137849E+00      0.1047799750E+01
          0                 2           2             4    7     1      -0.5497438358E-03       4    7    1        -0.2951141448E-01      0.1043945400E+00
          0                 3           2             4    7     1      -0.2314023781E-01       5    6    1        -0.1243099179E+01      0.3059252150E+01
          0                 4           2             4    7     1       0.2412434375E-01       5    6    1         0.1331781709E+01      0.3262216916E+01
          0                 5           2             4    7     1      -0.9601660872E-03       5    8    1        -0.5448389360E-01      0.1334577905E+00
          0                 6           1             4    7     1       0.1184531266E-04       5    8    1         0.6908306082E-03      0.1692173072E-02

    ------------------------------------------------
       NWT REQUIRED            6 OUTER ITERATIONS 
       AND A TOTAL OF         11 INNER ITERATIONS.
    ------------------------------------------------

 NO OUTPUT CONTROL FOR STRESS PERIOD   30   TIME STEP   29
 
 SOLVING FOR HEAD 
                                                   Max.-Head-Change                         Max.-Flux-Residual
  Residual-Control   Outer-Iter.   Inner-Iter.     Column Row Layer    Maximum-Head-Change  Column Row Layer    Maximum-Flux-Residual          L2-NORM 
          0                 1           2             4    7     1       0.5623592713E-02       4    7    1         0.2936457118E+00      0.1043035477E+01
          0                 2           2             4    7     1      -0.5470230623E-03       4    7    1        -0.2936462167E-01      0.1039447221E+00
          0                 3           2             4    7     1      -0.2314046227E-01       5    6    1        -0.1243107403E+01      0.3059274073E+01
          0                 4           2             4    7     1       0.2412439239E-01       5    6    1         0.1331784311E+01      0.3262223571E+01
          0                 5           2             4    7     1      -0.9601750263E-03       5    8    1        -0.5448439947E-01      0.1334590248E+00
          0                 6           1             4    7     1       0.1185496193E-04       5    8    1         0.6913933155E-03      0.1693554949E-02

    ------------------------------------------------
       NWT REQUIRED            6 OUTER ITERATIONS 
       AND A TOTAL OF         11 INNER ITERATIONS.
    ------------------------------------------------

 NO OUTPUT CONTROL FOR STRESS PERIOD   30   TIME STEP   30



 STREAM LISTING     PERIOD     30   STEP       30

 LAYER ROW COL. STREAM  RCH.  FLOW INTO     FLOW TO   FLOW OUT OF   OVRLND.     DIRECT     STREAM       STREAM     STREAM     STREAM   STREAMBED  STREAMBED
                SEG.NO.  NO.  STRM. RCH.    AQUIFER    STRM. RCH.    RUNOFF     PRECIP       ET          HEAD       DEPTH      WIDTH   CONDCTNC.   GRADIENT

   1    1    1     1     1    3.7124E+01  2.9395E-01   3.6830E+01  0.000E+00  0.000E+00  0.000E+00  1.09436E+03  1.309E+00  1.516E+01  6.821E-02  1.436E+00
   1    2    2     1     2    3.6830E+01  4.5517E-01   3.6375E+01  0.000E+00  0.000E+00  0.000E+00  1.08936E+03  1.306E+00  1.510E+01  1.057E-01  1.435E+00
   1    3    3     1     3    3.6375E+01  3.8813E-01   3.5987E+01  0.000E+00  0.000E+00  0.000E+00  1.08372E+03  1.303E+00  1.503E+01  9.020E-02  1.434E+00
   1    3    4     1     4    3.5987E+01  3.5736E-01   3.5629E+01  0.000E+00  0.000E+00  0.000E+00  1.07871E+03  1.300E+00  1.497E+01  8.311E-02  1.433E+00
   1    4    5     2     1    3.3629E+01  3.4618E-01   3.3283E+01  0.000E+00  0.000E+00  0.000E+00  1.07337E+03  1.438E+00  1.200E+01  7.800E-02  1.479E+00
   1    5    6     2     2    3.3283E+01  2.6582E-01   3.3017E+01  0.000E+00  0.000E+00  0.000E+00  1.06794E+03  1.430E+00  1.200E+01  6.000E-02  1.477E+00
   1    6    6     2     3    3.3017E+01  2.6541E-01   3.2752E+01  0.000E+00  0.000E+00  0.000E+00  1.06322E+03  1.423E+00  1.200E+01  6.000E-02  1.474E+00
   1    7    6     2     4    3.2752E+01  2.6499E-01   3.2487E+01  0.000E+00  0.000E+00  0.000E+00  1.05849E+03  1.417E+00  1.200E+01  6.000E-02  1.472E+00
   1    8    6     2     5    3.2487E+01  2.6458E-01   3.2222E+01  0.000E+00  0.000E+00  0.000E+00  1.05377E+03  1.410E+00  1.200E+01  6.000E-02  1.470E+00
   1    3    5     3     1    2.0000E+00  2.8252E-01   1.7175E+00  0.000E+00  0.000E+00  0.000E+00  1.07555E+03  1.909E+00  9.636E+00  7.227E-02  1.955E+00
   1    3    6     3     2    1.7175E+00  2.4905E-01   1.4684E+00  0.000E+00  0.000E+00  0.000E+00  1.07264E+03  1.727E+00  8.909E+00  6.682E-02  1.864E+00
   1    3    7     3     3    1.4684E+00  1.9718E-01   1.2712E+00  0.000E+00  0.000E+00  0.000E+00  1.06987E+03  1.555E+00  8.218E+00  5.547E-02  1.777E+00
   1    4    8     3     4    1.2712E+00  2.2567E-01   1.0456E+00  0.000E+00  0.000E+00  0.000E+00  1.06682E+03  1.364E+00  7.455E+00  6.709E-02  1.682E+00
   1    5    8     3     5    1.0456E+00  1.5790E-01   8.8768E-01  0.000E+00  0.000E+00  0.000E+00  1.06362E+03  1.164E+00  6.655E+00  4.991E-02  1.582E+00
   1    6    8     3     6    8.8768E-01  5.5980E-02   8.3170E-01  0.000E+00  0.000E+00  0.000E+00  1.06158E+03  1.036E+00  6.145E+00  1.844E-02  1.518E+00
   1    5   10     4     1    1.0000E+01  9.0919E-02   9.9091E+00  0.000E+00  0.000E+00  0.000E+00  1.07836E+03  6.368E-01  1.000E+01  2.500E-02  1.212E+00
   1    5    9     4     2    9.9091E+00  1.8158E-01   9.7275E+00  0.000E+00  0.000E+00  0.000E+00  1.07154E+03  6.315E-01  1.000E+01  5.000E-02  1.211E+00
   1    6    8     4     3    9.7275E+00  1.2689E-01   9.6006E+00  0.000E+00  0.000E+00  0.000E+00  1.06381E+03  6.256E-01  1.000E+01  3.500E-02  1.209E+00
   1    6    8     5     1    1.0432E+01  2.2686E-01   1.0205E+01  0.000E+00  0.000E+00  0.000E+00  1.05868E+03  6.790E-01  1.542E+01  6.166E-02  1.226E+00
   1    7    7     5     2    1.0205E+01  2.7894E-01   9.9265E+00  0.000E+00  0.000E+00  0.000E+00  1.05417E+03  6.732E-01  1.519E+01  7.594E-02  1.224E+00
   1    8    7     5     3    9.9265E+00  1.9221E-01   9.7343E+00  0.000E+00  0.000E+00  0.000E+00  1.04992E+03  6.676E-01  1.497E+01  5.241E-02  1.223E+00
   1    8    6     5     4    9.7343E+00  1.3577E-01   9.5985E+00  0.000E+00  0.000E+00  0.000E+00  1.04691E+03  6.637E-01  1.482E+01  3.706E-02  1.221E+00
   1    9    6     6     1    3.4352E+01  2.6845E-01   3.4084E+01  0.000E+00  0.000E+00  0.000E+00  1.04420E+03  1.474E+00  1.200E+01  6.000E-02  1.491E+00
   1   10    7     6     2    3.4084E+01  2.6803E-01   3.3816E+01  0.000E+00  0.000E+00  0.000E+00  1.03965E+03  1.467E+00  1.200E+01  6.000E-02  1.489E+00
   1   11    7     6     3    3.3816E+01  2.6761E-01   3.3548E+01  0.000E+00  0.000E+00  0.000E+00  1.03510E+03  1.460E+00  1.200E+01  6.000E-02  1.487E+00
   1   12    7     6     4    3.3548E+01  2.6719E-01   3.3281E+01  0.000E+00  0.000E+00  0.000E+00  1.03054E+03  1.453E+00  1.200E+01  6.000E-02  1.484E+00
   1   13    7     6     5    3.3281E+01  1.8787E-02   3.3262E+01  0.000E+00  0.000E+00  0.000E+00  1.02736E+03  1.449E+00  1.200E+01  2.400E-02  2.609E-01
   1   14    9     7     1    1.5000E+02  1.3875E+00   1.4861E+02  0.000E+00  0.000E+00  0.000E+00  1.03987E+03  2.288E+00  5.529E+01  5.593E-01  8.270E-01
   1   13    8     7     2    1.4861E+02  1.9979E+00   1.4661E+02  0.000E+00  0.000E+00  0.000E+00  1.03478E+03  2.279E+00  5.525E+01  6.147E-01  1.083E+00
   1   13    7     7     3    1.4661E+02  1.7377E+00   1.4488E+02  0.000E+00  0.000E+00  0.000E+00  1.02969E+03  2.269E+00  5.521E+01  5.584E-01  1.037E+00
   1   13    6     8     1    1.7814E+02  1.2128E+00   1.7693E+02  0.000E+00  0.000E+00  0.000E+00  1.02488E+03  3.001E+00  4.351E+01  4.434E-01  9.118E-01
   1   13    5     8     2    1.7693E+02  4.2462E-01   1.7650E+02  0.000E+00  0.000E+00  0.000E+00  1.01862E+03  2.995E+00  4.343E+01  4.426E-01  3.198E-01
   1   13    4     8     3    1.7650E+02 -1.6433E+00   1.7814E+02  0.000E+00  0.000E+00  0.000E+00  1.01237E+03  2.999E+00  4.349E+01  4.432E+00 -1.236E-01
   1   13    3     8     4    1.7814E+02 -3.2431E+00   1.8139E+02  0.000E+00  0.000E+00  0.000E+00  1.00614E+03  3.015E+00  4.371E+01  4.455E+00 -2.427E-01
   1   13    2     8     5    1.8139E+02 -2.4368E+00   1.8382E+02  0.000E+00  0.000E+00  0.000E+00  9.99907E+02  3.032E+00  4.397E+01  4.481E+00 -1.813E-01
   1   13    1     8     6    1.8382E+02 -1.9114E+00   1.8574E+02  0.000E+00  0.000E+00  0.000E+00  9.94921E+02  3.046E+00  4.417E+01  2.700E+00 -2.359E-01
   1    8    6     9     1    7.4685E+00  0.0000E+00   7.4685E+00  0.000E+00  0.000E+00  0.000E+00  1.08065E+03  1.902E+00  4.000E+00  0.000E+00  1.634E+00
   1    8    5     9     2    7.4685E+00  0.0000E+00   7.4685E+00  0.000E+00  0.000E+00  0.000E+00  1.08015E+03  1.902E+00  4.000E+00  0.000E+00  1.634E+00





UNSATURATED ZONE PACKAGE VOLUMETRIC BUDGET FOR  TIME STEP    30 STRESS PERIOD   30
  ------------------------------------------------------------------------------



     CUMULATIVE VOLUMES      L**3       RATES FOR THIS TIME STEP      L**3/T
     ------------------                 ------------------------

           IN:                                      IN:
           ---                                      ---
        INFILTRATION =  1125854246.8358          INFILTRATION =           8.3162

          OUT:                                     OUT:
          ----                                     ----
              UZF ET =   891503638.3513                UZF ET =           8.3175
        UZF RECHARGE =       73224.0000          UZF RECHARGE =       0.0000E+00

            IN - OUT =   234277384.4844              IN - OUT =      -1.3205E-03

          STORAGE:                                 STORAGE:
          --------                                 --------
      STORAGE CHANGE =   234277590.6339        STORAGE CHANGE =      -1.3206E-03

 PERCENT DISCREPANCY IS DIFFERENCE BETWEEN IN-OUT MINUS CHANGE IN STORAGE
 DIVIDED BY THE AVERAGE OF IN AND OUT TIMES 100

 PERCENT DISCREPANCY =          -0.00     PERCENT DISCREPANCY =           0.00






1
  VOLUMETRIC BUDGET FOR AGRICULTURAL FIELDS AT  END OF TIME STEP   30, STRESS PERIOD  30
  ------------------------------------------------------------------------------

     CUMULATIVE VOLUMES      L**3       RATES FOR THIS TIME STEP      L**3/T
     ------------------                 ------------------------

           IN:                                      IN:
           ---                                      ---
               AG WELLS  =   666412096.0000                 AG WELLS  =           0.0000
      DIVERSION SEGMENTS =   394808096.0000        DIVERSION SEGMENTS =           7.4685
       IRRIGATION PONDS  =           0.0000         IRRIGATION PONDS  =           0.0000
           GW IRRIGATION =           0.0000             GW IRRIGATION =           0.0000
           SW IRRIGATION =           0.0000             SW IRRIGATION =           0.0000
        SYSTEM LOSSES GW =           0.0000          SYSTEM LOSSES GW =           0.0000
        SYSTEM LOSSES SW =           0.0000          SYSTEM LOSSES SW =           0.0000

                TOTAL IN =  1061220224.0000                  TOTAL IN =           7.4685

          OUT:                                     OUT:
          ----                                     ----
               AG WELLS  =           0.0000                 AG WELLS  =           0.0000
      DIVERSION SEGMENTS =           0.0000        DIVERSION SEGMENTS =           0.0000
       IRRIGATION PONDS  =           0.0000         IRRIGATION PONDS  =           0.0000
           GW IRRIGATION =   666412096.0000             GW IRRIGATION =           0.0000
           SW IRRIGATION =   394816128.0000             SW IRRIGATION =           7.4687
        SYSTEM LOSSES GW =           0.0000          SYSTEM LOSSES GW =           0.0000
        SYSTEM LOSSES SW =           0.0000          SYSTEM LOSSES SW =           0.0000

               TOTAL OUT =  1061228224.0000                 TOTAL OUT =           7.4687

                IN - OUT =       -8000.0000                  IN - OUT =      -1.4877E-04

     PERCENT DISCREPANCY =          -0.00         PERCENT DISCREPANCY =          -0.00



1
  VOLUMETRIC BUDGET FOR ENTIRE MODEL AT END OF TIME STEP   30, STRESS PERIOD  30
  ------------------------------------------------------------------------------

     CUMULATIVE VOLUMES      L**3       RATES FOR THIS TIME STEP      L**3/T
     ------------------                 ------------------------

           IN:                                      IN:
           ---                                      ---
             STORAGE     =  1061877632.0000               STORAGE     =           1.5349
       CONSTANT HEAD     =           0.0000         CONSTANT HEAD     =           0.0000
     HEAD DEP BOUNDS     =    22013864.0000       HEAD DEP BOUNDS     =           0.2893
      STREAM LEAKAGE     =   906420160.0000        STREAM LEAKAGE     =          13.1537
        UZF RECHARGE     =       73223.9531          UZF RECHARGE     =           0.0000
               GW ET     =           0.0000                 GW ET     =           0.0000
     SURFACE LEAKAGE     =           0.0000       SURFACE LEAKAGE     =           0.0000
           AG WELLS      =           0.0000             AG WELLS      =           0.0000

                TOTAL IN =  1990384896.0000                  TOTAL IN =          14.9778

          OUT:                                     OUT:
          ----                                     ----
             STORAGE     =   540816640.0000               STORAGE     =           5.4531
       CONSTANT HEAD     =           0.0000         CONSTANT HEAD     =           0.0000
     HEAD DEP BOUNDS     =    21982060.0000       HEAD DEP BOUNDS     =           0.2899
      STREAM LEAKAGE     =   761184768.0000        STREAM LEAKAGE     =           9.2347
        UZF RECHARGE     =           0.0000          UZF RECHARGE     =           0.0000
               GW ET     =           0.0000                 GW ET     =           0.0000
     SURFACE LEAKAGE     =           0.0000       SURFACE LEAKAGE     =           0.0000
           AG WELLS      =   666412096.0000             AG WELLS      =           0.0000

               TOTAL OUT =  1990395648.0000                 TOTAL OUT =          14.9777

                IN - OUT =      -10752.0000                  IN - OUT =       6.5804E-05

     PERCENT DISCREPANCY =          -0.00         PERCENT DISCREPANCY =           0.00






         TIME SUMMARY AT END OF TIME STEP   30 IN STRESS PERIOD   30
                    SECONDS     MINUTES      HOURS       DAYS        YEARS
                    -----------------------------------------------------------
   TIME STEP LENGTH  87667.      1461.1      24.352      1.0147     2.77799E-03
 STRESS PERIOD TIME 2.63000E+06  43833.      730.56      30.440     8.33397E-02
         TOTAL TIME 7.63565E+07 1.27261E+06  21210.      883.76      2.4196    
1
1
                            STRESS PERIOD NO.   31, LENGTH =   2630000.    
                            -----------------------------------------------

                              NUMBER OF TIME STEPS =    30

                               MULTIPLIER FOR DELT =     1.000

                            INITIAL TIME STEP SIZE =   87666.66    

 REUSING NON-PARAMETER GHB CELLS FROM LAST STRESS PERIOD

      2 GHB CELLS

 REUSING STREAM SEGMENT DATA FROM LAST STRESS PERIOD



            AREAL INFILTRATION RATE
 READING ON UNIT   19 WITH FORMAT: (FREE)              

            1           2           3           4           5           6           7           8           9          10
 ........................................................................................................................
   1   1.0000E-10  2.0000E-10   0.000       0.000       0.000       0.000       0.000       0.000       0.000       0.000    
   2   2.0000E-10  1.0000E-10  2.0000E-10   0.000       0.000      8.0000E-10  8.0000E-10  5.0000E-10   0.000       0.000    
   3    0.000      5.0000E-10  1.0000E-10  1.0000E-10  8.0000E-10  8.0000E-10  5.0000E-10  5.0000E-10   0.000       0.000    
   4   8.0000E-10  5.0000E-10  1.0000E-10  1.0000E-10  1.0000E-10  1.0000E-10  1.0000E-10  1.0000E-10  2.0000E-10   0.000    
   5   8.0000E-10  5.0000E-10  1.0000E-10  1.0000E-10  1.0000E-10  1.0000E-10  1.0000E-10  1.0000E-10  1.0000E-10  1.0000E-10
   6   8.0000E-10  5.0000E-10  5.0000E-10  2.0000E-10  2.0000E-10  1.0000E-10  1.0000E-10  1.0000E-10  1.0000E-10  5.0000E-10
   7   8.0000E-10  5.0000E-10  5.0000E-10  2.0000E-10  2.0000E-10  1.0000E-10  1.0000E-10  2.0000E-10  2.0000E-10   0.000    
   8    0.000      5.0000E-10  5.0000E-10  2.0000E-10  2.0000E-10  1.0000E-10  1.0000E-10  2.0000E-10  5.0000E-10   0.000    
   9    0.000      5.0000E-10  5.0000E-10  2.0000E-10  2.0000E-10  1.0000E-10  1.0000E-10  2.0000E-10  5.0000E-10   0.000    
  10    0.000      5.0000E-10  5.0000E-10  2.0000E-10  2.0000E-10  1.0000E-10  1.0000E-10  2.0000E-10  5.0000E-10  8.0000E-10
  11    0.000      1.0000E-10  1.0000E-10  1.0000E-10  1.0000E-10  1.0000E-10  1.0000E-10  2.0000E-10  5.0000E-10   0.000    
  12   1.0000E-10  1.0000E-10  1.0000E-10  1.0000E-10  1.0000E-10  1.0000E-10  1.0000E-10  1.0000E-10  2.0000E-10   0.000    
  13   1.0000E-10  1.0000E-10  2.0000E-10  2.0000E-10  2.0000E-10  2.0000E-10  2.0000E-10  1.0000E-10  1.0000E-10   0.000    
  14    0.000      2.0000E-10  5.0000E-10  5.0000E-10  5.0000E-10  5.0000E-10  5.0000E-10  2.0000E-10  1.0000E-10   0.000    
  15    0.000       0.000      8.0000E-10  8.0000E-10  8.0000E-10  8.0000E-10   0.000       0.000       0.000       0.000    

                  ET RATE =  1.500000E-07

 USING ET EXTINCTION DEPTH FROM PREVIOUS STRESS PERIOD. CURRENT PERIOD IS:      31

 USING EXTINCTION WATER CONTENT FROM PREVIOUS STRESS PERIOD. CURRENT PERIOD IS:      31

 USING AIR ENTRY PRESSURE FROM PREVIOUS STRESS PERIOD. CURRENT PERIOD IS:      31

 USING ROOT PRESSURE HEAD FROM PREVIOUS STRESS PERIOD. CURRENT PERIOD IS:      31

 USING ROOT ACTIVITY FROM PREVIOUS STRESS PERIOD. CURRENT PERIOD IS:      31

 PROCESSING AG STRESS PERIOD DATA

 READING AG STRESS PERIOD DATA

 READING IRRIGATION SEGMENT

 READING IRRIGATION WELL

 READING SUPPLEMENTAL WELL

 NO IRRPOND OR REUSING IRRPOND DATA FROM LAST STRESS PERIOD

 END PROCESSING AG STRESS PERIOD DATA OPTIONS
 
 SOLVING FOR HEAD 
                                                   Max.-Head-Change                         Max.-Flux-Residual
  Residual-Control   Outer-Iter.   Inner-Iter.     Column Row Layer    Maximum-Head-Change  Column Row Layer    Maximum-Flux-Residual          L2-NORM 
          0                 1           2             4   13     1      -0.6955198909E-02       4   13    1        -0.3986486937E+00      0.1153860048E+01
          0                 2           2             4    7     1      -0.4657165908E-01       4    7    1        -0.2501020584E+01      0.6121784382E+01
          0                 3           2             4    7     1       0.2363755561E-01       4    7    1         0.1304890500E+01      0.3195806846E+01
          0                 4           2             4    7     1      -0.9405697117E-03       4    7    1        -0.5337066239E-01      0.1307150297E+00
          0                 5           1             4    7     1       0.1159761744E-04       4    7    1         0.6763699023E-03      0.1657413415E-02

    ------------------------------------------------
       NWT REQUIRED            5 OUTER ITERATIONS 
       AND A TOTAL OF          9 INNER ITERATIONS.
    ------------------------------------------------

 NO OUTPUT CONTROL FOR STRESS PERIOD   31   TIME STEP    1
 
 SOLVING FOR HEAD 
                                                   Max.-Head-Change                         Max.-Flux-Residual
  Residual-Control   Outer-Iter.   Inner-Iter.     Column Row Layer    Maximum-Head-Change  Column Row Layer    Maximum-Flux-Residual          L2-NORM 
          0                 1           2             4    7     1       0.5717347412E-02       4    7    1         0.2979379658E+00      0.9985755515E+00
          0                 2           2             7   13     1      -0.3505874693E-02       7   13    1        -0.1945650728E+00      0.2174247674E+00
          0                 3           2             4    7     1      -0.1901517025E-01       5    6    1        -0.1021353024E+01      0.2513738537E+01
          0                 4           2             4    7     1       0.1878523634E-01       5    6    1         0.1037027700E+01      0.2540175415E+01
          0                 5           2             4    7     1      -0.5734147370E-02       4    8    1        -0.3253703164E+00      0.8011956238E+00
          0                 6           2             4    7     1       0.5320593621E-02       5    6    1         0.3102929716E+00      0.7600958742E+00
          0                 7           2             4    7     1      -0.5339543549E-02       4    8    1        -0.3200245303E+00      0.7885941784E+00
          0                 8           2             4    7     1       0.5008330098E-02       5    6    1         0.3084618720E+00      0.7556172588E+00
          0                 9           2             4    7     1       0.3421611659E-03       5    6    1         0.2107342220E-01      0.5235878372E-01
          0                10           2             4    7     1      -0.1058677316E-02       4    8    1        -0.6699749369E-01      0.1660184590E+00
                                                   Max.-Head-Change                         Max.-Flux-Residual
  Residual-Control   Outer-Iter.   Inner-Iter.     Column Row Layer    Maximum-Head-Change  Column Row Layer    Maximum-Flux-Residual          L2-NORM 
          0                11           2             4    7     1       0.1526783800E-02       5    6    1         0.9927135658E-01      0.2431643094E+00
          0                12           2             4    7     1       0.1774761756E-03       5    6    1         0.1153935807E-01      0.2826553384E-01
          0                13           1             4    7     1       0.2062810533E-04       5    6    1         0.1341207637E-02      0.3285273819E-02

    ------------------------------------------------
       NWT REQUIRED           13 OUTER ITERATIONS 
       AND A TOTAL OF         25 INNER ITERATIONS.
    ------------------------------------------------

 NO OUTPUT CONTROL FOR STRESS PERIOD   31   TIME STEP    2
 
 SOLVING FOR HEAD 
                                                   Max.-Head-Change                         Max.-Flux-Residual
  Residual-Control   Outer-Iter.   Inner-Iter.     Column Row Layer    Maximum-Head-Change  Column Row Layer    Maximum-Flux-Residual          L2-NORM 
          0                 1           2             4    7     1       0.5699815672E-02       4    7    1         0.2970648324E+00      0.9856095864E+00
          0                 2           2             4    7     1      -0.1636966089E-01       4    7    1        -0.8790295398E+00      0.2162249228E+01
          0                 3           2             4    7     1      -0.2097751164E-01       5    6    1        -0.1126749511E+01      0.2799782521E+01
          0                 4           2             4    7     1       0.3744976049E-01       5    6    1         0.2067377881E+01      0.5064045279E+01
          0                 5           2             4    7     1      -0.6596722076E-02       4    8    1        -0.3743169077E+00      0.9204412415E+00
          0                 6           2             4    7     1       0.5259822104E-02       5    6    1         0.3067488621E+00      0.7514188093E+00
          0                 7           2             4    7     1       0.9995757452E-04       5    6    1         0.5829412829E-02      0.1649534355E-01

    ------------------------------------------------
       NWT REQUIRED            7 OUTER ITERATIONS 
       AND A TOTAL OF         14 INNER ITERATIONS.
    ------------------------------------------------

 NO OUTPUT CONTROL FOR STRESS PERIOD   31   TIME STEP    3
 
 SOLVING FOR HEAD 
                                                   Max.-Head-Change                         Max.-Flux-Residual
  Residual-Control   Outer-Iter.   Inner-Iter.     Column Row Layer    Maximum-Head-Change  Column Row Layer    Maximum-Flux-Residual          L2-NORM 
          0                 1           2             4    7     1       0.5685560283E-02       4    7    1         0.2963449794E+00      0.9913552398E+00
          0                 2           2             4    7     1      -0.7977111096E-02       4    7    1        -0.4283279926E+00      0.1054296815E+01
          0                 3           2             4    7     1      -0.5364554374E-01       5    6    1        -0.2881108850E+01      0.7100245115E+01
          0                 4           2             4    7     1       0.6360613932E-01       5    6    1         0.3511279362E+01      0.8600951775E+01
          0                 5           2             4    7     1      -0.2532064714E-02       4    6    1        -0.1456447741E+00      0.3527009971E+00
          0                 6           1             4    7     1       0.3124452787E-04       4    6    1         0.1847482891E-02      0.4473596943E-02

    ------------------------------------------------
       NWT REQUIRED            6 OUTER ITERATIONS 
       AND A TOTAL OF         11 INNER ITERATIONS.
    ------------------------------------------------

 NO OUTPUT CONTROL FOR STRESS PERIOD   31   TIME STEP    4
 
 SOLVING FOR HEAD 
                                                   Max.-Head-Change                         Max.-Flux-Residual
  Residual-Control   Outer-Iter.   Inner-Iter.     Column Row Layer    Maximum-Head-Change  Column Row Layer    Maximum-Flux-Residual          L2-NORM 
          0                 1           2             4    7     1       0.5667013971E-02       4    7    1         0.2954157346E+00      0.1004817279E+01
          0                 2           2             4    7     1      -0.5512466689E-03       4    7    1        -0.2954161756E-01      0.1002015663E+00
          0                 3           2             4    7     1      -0.6969710840E-01       5    6    1        -0.3743130315E+01      0.9212151192E+01
          0                 4           2             4    7     1       0.7258553179E-01       5    6    1         0.4006975319E+01      0.9815071358E+01
          0                 5           2             4    7     1      -0.2888535208E-02       4    6    1        -0.1659078876E+00      0.4022612172E+00
          0                 6           1             4    7     1       0.3564319463E-04       4    6    1         0.2104451182E-02      0.5102054678E-02

    ------------------------------------------------
       NWT REQUIRED            6 OUTER ITERATIONS 
       AND A TOTAL OF         11 INNER ITERATIONS.
    ------------------------------------------------

 NO OUTPUT CONTROL FOR STRESS PERIOD   31   TIME STEP    5
 
 SOLVING FOR HEAD 
                                                   Max.-Head-Change                         Max.-Flux-Residual
  Residual-Control   Outer-Iter.   Inner-Iter.     Column Row Layer    Maximum-Head-Change  Column Row Layer    Maximum-Flux-Residual          L2-NORM 
          0                 1           2             4    7     1       0.5647761945E-02       4    7    1         0.2944468241E+00      0.1016829609E+01
          0                 2           2             4    7     1      -0.5493739752E-03       4    7    1        -0.2944472677E-01      0.1013206240E+00
          0                 3           2             4    7     1      -0.6969722580E-01       5    6    1        -0.3743148863E+01      0.9212304355E+01
          0                 4           2             4    7     1       0.7258551764E-01       5    6    1         0.4006975426E+01      0.9815085481E+01
          0                 5           2             4    7     1      -0.2888526067E-02       4    6    1        -0.1659434261E+00      0.4022741116E+00
          0                 6           1             4    7     1       0.3564308172E-04       4    6    1         0.2104911753E-02      0.5102239177E-02

    ------------------------------------------------
       NWT REQUIRED            6 OUTER ITERATIONS 
       AND A TOTAL OF         11 INNER ITERATIONS.
    ------------------------------------------------

 NO OUTPUT CONTROL FOR STRESS PERIOD   31   TIME STEP    6
 
 SOLVING FOR HEAD 
                                                   Max.-Head-Change                         Max.-Flux-Residual
  Residual-Control   Outer-Iter.   Inner-Iter.     Column Row Layer    Maximum-Head-Change  Column Row Layer    Maximum-Flux-Residual          L2-NORM 
          0                 1           2             4    7     1       0.5627988302E-02       4    7    1         0.2934486272E+00      0.1029361079E+01
          0                 2           2             4    7     1      -0.5474505424E-03       4    7    1        -0.2934490737E-01      0.1024915375E+00
          0                 3           2             4    7     1      -0.6969734226E-01       5    6    1        -0.3743166368E+01      0.9212447205E+01
          0                 4           2             4    7     1       0.7258550462E-01       5    6    1         0.4006975539E+01      0.9815099275E+01
          0                 5           2             4    7     1      -0.2888522377E-02       4    6    1        -0.1659784125E+00      0.4022873752E+00
          0                 6           1             4    7     1       0.3564303624E-04       4    6    1         0.2105365077E-02      0.5102426204E-02

    ------------------------------------------------
       NWT REQUIRED            6 OUTER ITERATIONS 
       AND A TOTAL OF         11 INNER ITERATIONS.
    ------------------------------------------------

 NO OUTPUT CONTROL FOR STRESS PERIOD   31   TIME STEP    7
 
 SOLVING FOR HEAD 
                                                   Max.-Head-Change                         Max.-Flux-Residual
  Residual-Control   Outer-Iter.   Inner-Iter.     Column Row Layer    Maximum-Head-Change  Column Row Layer    Maximum-Flux-Residual          L2-NORM 
          0                 1           2             4    7     1       0.5607734350E-02       4    7    1         0.2924233849E+00      0.1042059261E+01
          0                 2           2             4    7     1      -0.5454803882E-03       4    7    1        -0.2924238334E-01      0.1036791204E+00
          0                 3           2             4    7     1      -0.6969746194E-01       5    6    1        -0.3743183124E+01      0.9212580753E+01
          0                 4           2             4    7     1       0.7258549159E-01       5    6    1         0.4006975599E+01      0.9815113047E+01
          0                 5           2             4    7     1      -0.2888518496E-02       4    6    1        -0.1660125540E+00      0.4023004187E+00
          0                 6           1             4    7     1       0.3564298852E-04       4    6    1         0.2105807455E-02      0.5102606255E-02

    ------------------------------------------------
       NWT REQUIRED            6 OUTER ITERATIONS 
       AND A TOTAL OF         11 INNER ITERATIONS.
    ------------------------------------------------

 NO OUTPUT CONTROL FOR STRESS PERIOD   31   TIME STEP    8
 
 SOLVING FOR HEAD 
                                                   Max.-Head-Change                         Max.-Flux-Residual
  Residual-Control   Outer-Iter.   Inner-Iter.     Column Row Layer    Maximum-Head-Change  Column Row Layer    Maximum-Flux-Residual          L2-NORM 
          0                 1           2             4    7     1       0.5587045090E-02       4   13    1         0.3104854444E+00      0.1054666702E+01
          0                 2           2             4    7     1      -0.5434678904E-03       4   13    1        -0.3074340875E-01      0.1048601651E+00
          0                 3           2             4    7     1      -0.6969758456E-01       5    6    1        -0.3743199126E+01      0.9212706043E+01
          0                 4           2             4    7     1       0.7258546126E-01       5    6    1         0.4006974653E+01      0.9815123776E+01
          0                 5           2             4    7     1      -0.2888496934E-02       4    6    1        -0.1660448761E+00      0.4023106335E+00
          0                 6           1             4    7     1       0.3564272226E-04       4    6    1         0.2106226547E-02      0.5102753612E-02

    ------------------------------------------------
       NWT REQUIRED            6 OUTER ITERATIONS 
       AND A TOTAL OF         11 INNER ITERATIONS.
    ------------------------------------------------

 NO OUTPUT CONTROL FOR STRESS PERIOD   31   TIME STEP    9
 
 SOLVING FOR HEAD 
                                                   Max.-Head-Change                         Max.-Flux-Residual
  Residual-Control   Outer-Iter.   Inner-Iter.     Column Row Layer    Maximum-Head-Change  Column Row Layer    Maximum-Flux-Residual          L2-NORM 
          0                 1           2             4   13     1       0.5764215359E-02       4   13    1         0.3314985757E+00      0.1066975518E+01
          0                 2           2             4   13     1      -0.5551060657E-03       4   13    1        -0.3282411965E-01      0.1060131194E+00
          0                 3           2             4    7     1      -0.6969771520E-01       5    6    1        -0.3743214721E+01      0.9212824089E+01
          0                 4           2             4    7     1       0.7258546435E-01       5    6    1         0.4006975506E+01      0.9815138590E+01
          0                 5           2             4    7     1      -0.2888504536E-02       4    6    1        -0.1660780753E+00      0.4023245701E+00
          0                 6           1             4    7     1       0.3564281658E-04       4    6    1         0.2106656535E-02      0.5102951496E-02

    ------------------------------------------------
       NWT REQUIRED            6 OUTER ITERATIONS 
       AND A TOTAL OF         11 INNER ITERATIONS.
    ------------------------------------------------

 NO OUTPUT CONTROL FOR STRESS PERIOD   31   TIME STEP   10
 
 SOLVING FOR HEAD 
                                                   Max.-Head-Change                         Max.-Flux-Residual
  Residual-Control   Outer-Iter.   Inner-Iter.     Column Row Layer    Maximum-Head-Change  Column Row Layer    Maximum-Flux-Residual          L2-NORM 
          0                 1           2             4   13     1       0.6094733798E-02       4   13    1         0.3505292268E+00      0.1078867296E+01
          0                 2           2             4   13     1      -0.5869180760E-03       4   13    1        -0.3470748264E-01      0.1071269913E+00
          0                 3           2             4    7     1      -0.6969784820E-01       5    6    1        -0.3743229715E+01      0.9212935219E+01
          0                 4           2             4    7     1       0.7258545590E-01       5    6    1         0.4006975682E+01      0.9815151500E+01
          0                 5           2             4    7     1      -0.2888500303E-02       4    6    1        -0.1661098517E+00      0.4023365884E+00
          0                 6           1             4    7     1       0.3564276404E-04       4    6    1         0.2107068279E-02      0.5103127358E-02

    ------------------------------------------------
       NWT REQUIRED            6 OUTER ITERATIONS 
       AND A TOTAL OF         11 INNER ITERATIONS.
    ------------------------------------------------

 NO OUTPUT CONTROL FOR STRESS PERIOD   31   TIME STEP   11
 
 SOLVING FOR HEAD 
                                                   Max.-Head-Change                         Max.-Flux-Residual
  Residual-Control   Outer-Iter.   Inner-Iter.     Column Row Layer    Maximum-Head-Change  Column Row Layer    Maximum-Flux-Residual          L2-NORM 
          0                 1           2             4   13     1       0.6394148474E-02       4   13    1         0.3677623709E+00      0.1090237100E+01
          0                 2           2             4   13     1      -0.6157804529E-03       4   13    1        -0.3641555029E-01      0.1081936410E+00
          0                 3           2             4    7     1      -0.6969797979E-01       5    6    1        -0.3743243850E+01      0.9213039012E+01
          0                 4           2             4    7     1       0.7258544282E-01       5    6    1         0.4006975559E+01      0.9815163462E+01
          0                 5           2             4    7     1      -0.2888495720E-02       4    6    1        -0.1661408801E+00      0.4023482747E+00
          0                 6           1             4    7     1       0.3564270770E-04       4    6    1         0.2107470345E-02      0.5103289829E-02

    ------------------------------------------------
       NWT REQUIRED            6 OUTER ITERATIONS 
       AND A TOTAL OF         11 INNER ITERATIONS.
    ------------------------------------------------

 NO OUTPUT CONTROL FOR STRESS PERIOD   31   TIME STEP   12
 
 SOLVING FOR HEAD 
                                                   Max.-Head-Change                         Max.-Flux-Residual
  Residual-Control   Outer-Iter.   Inner-Iter.     Column Row Layer    Maximum-Head-Change  Column Row Layer    Maximum-Flux-Residual          L2-NORM 
          0                 1           2             4   13     1       0.6665666143E-02       4   13    1         0.3833837479E+00      0.1101040465E+01
          0                 2           2             4   13     1      -0.6418835332E-03       4   13    1        -0.3795973484E-01      0.1092046728E+00
          0                 3           2             4    7     1      -0.6969811678E-01       5    6    1        -0.3743257703E+01      0.9213137130E+01
          0                 4           2             4    7     1       0.7258543427E-01       5    6    1         0.4006975655E+01      0.9815175635E+01
          0                 5           2             4    7     1      -0.2888491160E-02       4    6    1        -0.1661712149E+00      0.4023596783E+00
          0                 6           1             4    7     1       0.3564265169E-04       4    6    1         0.2107863415E-02      0.5103458121E-02

    ------------------------------------------------
       NWT REQUIRED            6 OUTER ITERATIONS 
       AND A TOTAL OF         11 INNER ITERATIONS.
    ------------------------------------------------

 NO OUTPUT CONTROL FOR STRESS PERIOD   31   TIME STEP   13
 
 SOLVING FOR HEAD 
                                                   Max.-Head-Change                         Max.-Flux-Residual
  Residual-Control   Outer-Iter.   Inner-Iter.     Column Row Layer    Maximum-Head-Change  Column Row Layer    Maximum-Flux-Residual          L2-NORM 
          0                 1           2             4   13     1       0.6911813653E-02       4   13    1         0.3975397790E+00      0.1111223981E+01
          0                 2           2             4   13     1      -0.6655787994E-03       4   13    1        -0.3936090228E-01      0.1101573691E+00
          0                 3           2             4    7     1      -0.6969825726E-01       5    6    1        -0.3743271069E+01      0.9213229841E+01
          0                 4           2             4    7     1       0.7258542001E-01       5    6    1         0.4006975398E+01      0.9815185919E+01
          0                 5           2             4    7     1      -0.2888480613E-02       4    6    1        -0.1662005276E+00      0.4023692232E+00
          0                 6           1             4    7     1       0.3564252119E-04       4    6    1         0.2108243346E-02      0.5103597676E-02

    ------------------------------------------------
       NWT REQUIRED            6 OUTER ITERATIONS 
       AND A TOTAL OF         11 INNER ITERATIONS.
    ------------------------------------------------

 NO OUTPUT CONTROL FOR STRESS PERIOD   31   TIME STEP   14
 
 SOLVING FOR HEAD 
                                                   Max.-Head-Change                         Max.-Flux-Residual
  Residual-Control   Outer-Iter.   Inner-Iter.     Column Row Layer    Maximum-Head-Change  Column Row Layer    Maximum-Flux-Residual          L2-NORM 
          0                 1           2             4   13     1       0.7135301213E-02       4   13    1         0.4103872142E+00      0.1120794800E+01
          0                 2           2             4   13     1      -0.6870972374E-03       4   13    1        -0.4063280891E-01      0.1110546891E+00
          0                 3           2             4    7     1      -0.6969839382E-01       5    6    1        -0.3743283685E+01      0.9213316376E+01
          0                 4           2             4    7     1       0.7258540678E-01       5    6    1         0.4006975169E+01      0.9815197679E+01
          0                 5           2             4    7     1      -0.2888475561E-02       4    6    1        -0.1662295014E+00      0.4023808137E+00
          0                 6           1             4    7     1       0.3564245903E-04       4    6    1         0.2108618797E-02      0.5103761583E-02

    ------------------------------------------------
       NWT REQUIRED            6 OUTER ITERATIONS 
       AND A TOTAL OF         11 INNER ITERATIONS.
    ------------------------------------------------

 NO OUTPUT CONTROL FOR STRESS PERIOD   31   TIME STEP   15
 
 SOLVING FOR HEAD 
                                                   Max.-Head-Change                         Max.-Flux-Residual
  Residual-Control   Outer-Iter.   Inner-Iter.     Column Row Layer    Maximum-Head-Change  Column Row Layer    Maximum-Flux-Residual          L2-NORM 
          0                 1           2             4   13     1       0.7338043262E-02       4   13    1         0.4220372193E+00      0.1129736075E+01
          0                 2           2             4   13     1      -0.7066195200E-03       4   13    1        -0.4178624589E-01      0.1118912912E+00
          0                 3           2             4    7     1      -0.6969853698E-01       5    6    1        -0.3743296058E+01      0.9213398628E+01
          0                 4           2             4    7     1       0.7258484451E-01       5    6    1         0.4006975161E+01      0.9815199870E+01
          0                 5           2             4    7     1      -0.2887909888E-02       4    8    1        -0.1638770425E+00      0.4014024990E+00
          0                 6           1             4    7     1       0.3563547551E-04       4    8    1         0.2078345301E-02      0.5090730917E-02

    ------------------------------------------------
       NWT REQUIRED            6 OUTER ITERATIONS 
       AND A TOTAL OF         11 INNER ITERATIONS.
    ------------------------------------------------

 NO OUTPUT CONTROL FOR STRESS PERIOD   31   TIME STEP   16
 
 SOLVING FOR HEAD 
                                                   Max.-Head-Change                         Max.-Flux-Residual
  Residual-Control   Outer-Iter.   Inner-Iter.     Column Row Layer    Maximum-Head-Change  Column Row Layer    Maximum-Flux-Residual          L2-NORM 
          0                 1           2             4   13     1       0.7522178771E-02       4   13    1         0.4326133389E+00      0.1138068458E+01
          0                 2           2             4   13     1      -0.7243526169E-03       4   13    1        -0.4283350740E-01      0.1126711108E+00
          0                 3           2             4    7     1      -0.6969868118E-01       5    6    1        -0.3743308039E+01      0.9213476500E+01
          0                 4           2             4    7     1       0.7258484077E-01       5    6    1         0.4006975761E+01      0.9815201315E+01
          0                 5           2             4    7     1      -0.2887909739E-02       4    8    1        -0.1638770628E+00      0.4014025592E+00
          0                 6           1             4    7     1       0.3563547383E-04       4    8    1         0.2078345576E-02      0.5090731121E-02

    ------------------------------------------------
       NWT REQUIRED            6 OUTER ITERATIONS 
       AND A TOTAL OF         11 INNER ITERATIONS.
    ------------------------------------------------

 NO OUTPUT CONTROL FOR STRESS PERIOD   31   TIME STEP   17
 
 SOLVING FOR HEAD 
                                                   Max.-Head-Change                         Max.-Flux-Residual
  Residual-Control   Outer-Iter.   Inner-Iter.     Column Row Layer    Maximum-Head-Change  Column Row Layer    Maximum-Flux-Residual          L2-NORM 
          0                 1           2             4   13     1       0.7689523953E-02       4   13    1         0.4422208301E+00      0.1145797689E+01
          0                 2           2             4   13     1      -0.7404593207E-03       4   13    1        -0.4378429538E-01      0.1133930018E+00
          0                 3           2             4    7     1      -0.6969881737E-01       5    6    1        -0.3743319175E+01      0.9213549197E+01
          0                 4           2             4    7     1       0.7258480481E-01       5    6    1         0.4006974554E+01      0.9815198364E+01
          0                 5           2             4    7     1      -0.2887885898E-02       4    8    1        -0.1638757382E+00      0.4013993256E+00
          0                 6           1             4    7     1       0.3563517956E-04       4    8    1         0.2078328782E-02      0.5090688977E-02

    ------------------------------------------------
       NWT REQUIRED            6 OUTER ITERATIONS 
       AND A TOTAL OF         11 INNER ITERATIONS.
    ------------------------------------------------

 NO OUTPUT CONTROL FOR STRESS PERIOD   31   TIME STEP   18
 
 SOLVING FOR HEAD 
                                                   Max.-Head-Change                         Max.-Flux-Residual
  Residual-Control   Outer-Iter.   Inner-Iter.     Column Row Layer    Maximum-Head-Change  Column Row Layer    Maximum-Flux-Residual          L2-NORM 
          0                 1           2             4   13     1       0.7841597144E-02       4   13    1         0.4509474335E+00      0.1152946712E+01
          0                 2           2             4   13     1      -0.7550660443E-03       4   13    1        -0.4464611603E-01      0.1140593050E+00
          0                 3           2             4    7     1      -0.6969896407E-01       5    6    1        -0.3743330385E+01      0.9213619182E+01
          0                 4           2             4    7     1       0.7258478396E-01       5    6    1         0.4006974147E+01      0.9815197381E+01
          0                 5           2             4    7     1      -0.2887868262E-02       4    8    1        -0.1638747649E+00      0.4013969379E+00
          0                 6           1             4    7     1       0.3563496203E-04       4    8    1         0.2078316445E-02      0.5090653397E-02

    ------------------------------------------------
       NWT REQUIRED            6 OUTER ITERATIONS 
       AND A TOTAL OF         11 INNER ITERATIONS.
    ------------------------------------------------

 NO OUTPUT CONTROL FOR STRESS PERIOD   31   TIME STEP   19
 
 SOLVING FOR HEAD 
                                                   Max.-Head-Change                         Max.-Flux-Residual
  Residual-Control   Outer-Iter.   Inner-Iter.     Column Row Layer    Maximum-Head-Change  Column Row Layer    Maximum-Flux-Residual          L2-NORM 
          0                 1           2             4   13     1       0.7979996451E-02       4   13    1         0.4588857521E+00      0.1159551475E+01
          0                 2           2             4   13     1      -0.7684013021E-03       4   13    1        -0.4543256665E-01      0.1146756640E+00
          0                 3           2             4    7     1      -0.6969910684E-01       5    6    1        -0.3743340979E+01      0.9213684476E+01
          0                 4           2             4    7     1       0.7258476431E-01       5    6    1         0.4006973776E+01      0.9815196504E+01
          0                 5           2             4    7     1      -0.2887856275E-02       4    8    1        -0.1638741118E+00      0.4013953527E+00
          0                 6           1             4    7     1       0.3563481394E-04       4    8    1         0.2078308159E-02      0.5090641215E-02

    ------------------------------------------------
       NWT REQUIRED            6 OUTER ITERATIONS 
       AND A TOTAL OF         11 INNER ITERATIONS.
    ------------------------------------------------

 NO OUTPUT CONTROL FOR STRESS PERIOD   31   TIME STEP   20
 
 SOLVING FOR HEAD 
                                                   Max.-Head-Change                         Max.-Flux-Residual
  Residual-Control   Outer-Iter.   Inner-Iter.     Column Row Layer    Maximum-Head-Change  Column Row Layer    Maximum-Flux-Residual          L2-NORM 
          0                 1           2             4   13     1       0.8105851910E-02       4   13    1         0.4661009670E+00      0.1165625243E+01
          0                 2           2             4   13     1      -0.7805321132E-03       4   13    1        -0.4614764285E-01      0.1152416766E+00
          0                 3           2             4    7     1      -0.6969925535E-01       5    6    1        -0.3743351512E+01      0.9213747273E+01
          0                 4           2             4    7     1       0.7258474936E-01       5    6    1         0.4006973639E+01      0.9815196212E+01
          0                 5           2             4    7     1      -0.2887844476E-02       4    8    1        -0.1638734687E+00      0.4013937808E+00
          0                 6           1             4    7     1       0.3563466855E-04       4    8    1         0.2078300010E-02      0.5090621505E-02

    ------------------------------------------------
       NWT REQUIRED            6 OUTER ITERATIONS 
       AND A TOTAL OF         11 INNER ITERATIONS.
    ------------------------------------------------

 NO OUTPUT CONTROL FOR STRESS PERIOD   31   TIME STEP   21
 
 SOLVING FOR HEAD 
                                                   Max.-Head-Change                         Max.-Flux-Residual
  Residual-Control   Outer-Iter.   Inner-Iter.     Column Row Layer    Maximum-Head-Change  Column Row Layer    Maximum-Flux-Residual          L2-NORM 
          0                 1           2             4   13     1       0.8220450909E-02       4   13    1         0.4726674949E+00      0.1171200350E+01
          0                 2           2             4   13     1      -0.7915464643E-03       4   13    1        -0.4679653793E-01      0.1157596799E+00
          0                 3           2             4    7     1      -0.6969940409E-01       5    6    1        -0.3743361706E+01      0.9213807152E+01
          0                 4           2             4    7     1       0.7258473446E-01       5    6    1         0.4006973478E+01      0.9815195890E+01
          0                 5           2             4    7     1      -0.2887832678E-02       4    8    1        -0.1638728252E+00      0.4013922058E+00
          0                 6           1             4    7     1       0.3563452259E-04       4    8    1         0.2078291848E-02      0.5090596753E-02

    ------------------------------------------------
       NWT REQUIRED            6 OUTER ITERATIONS 
       AND A TOTAL OF         11 INNER ITERATIONS.
    ------------------------------------------------

 NO OUTPUT CONTROL FOR STRESS PERIOD   31   TIME STEP   22
 
 SOLVING FOR HEAD 
                                                   Max.-Head-Change                         Max.-Flux-Residual
  Residual-Control   Outer-Iter.   Inner-Iter.     Column Row Layer    Maximum-Head-Change  Column Row Layer    Maximum-Flux-Residual          L2-NORM 
          0                 1           2             4   13     1       0.8324884338E-02       4   13    1         0.4786485687E+00      0.1176308952E+01
          0                 2           2             4   13     1      -0.8015927015E-03       4   13    1        -0.4738811314E-01      0.1162337602E+00
          0                 3           2             4    7     1      -0.6969954848E-01       5    6    1        -0.3743371401E+01      0.9213863448E+01
          0                 4           2             4    7     1       0.7258470921E-01       5    6    1         0.4006972727E+01      0.9815194116E+01
          0                 5           2             4    7     1      -0.2887814866E-02       4    8    1        -0.1638718399E+00      0.4013897995E+00
          0                 6           1             4    7     1       0.3563430326E-04       4    8    1         0.2078279336E-02      0.5090566457E-02

    ------------------------------------------------
       NWT REQUIRED            6 OUTER ITERATIONS 
       AND A TOTAL OF         11 INNER ITERATIONS.
    ------------------------------------------------

 NO OUTPUT CONTROL FOR STRESS PERIOD   31   TIME STEP   23
 
 SOLVING FOR HEAD 
                                                   Max.-Head-Change                         Max.-Flux-Residual
  Residual-Control   Outer-Iter.   Inner-Iter.     Column Row Layer    Maximum-Head-Change  Column Row Layer    Maximum-Flux-Residual          L2-NORM 
          0                 1           2             4   13     1       0.8420123602E-02       4   13    1         0.4841001831E+00      0.1180980652E+01
          0                 2           2             4   13     1      -0.8107576322E-03       4   13    1        -0.4792751033E-01      0.1166665271E+00
          0                 3           2             4    7     1      -0.6969969733E-01       5    6    1        -0.3743381031E+01      0.9213917604E+01
          0                 4           2             4    7     1       0.7258469436E-01       5    6    1         0.4006972527E+01      0.9815193709E+01
          0                 5           2             4    7     1      -0.2887803071E-02       4    8    1        -0.1638711957E+00      0.4013882226E+00
          0                 6           1             4    7     1       0.3563415775E-04       4    8    1         0.2078271177E-02      0.5090550337E-02

    ------------------------------------------------
       NWT REQUIRED            6 OUTER ITERATIONS 
       AND A TOTAL OF         11 INNER ITERATIONS.
    ------------------------------------------------

 NO OUTPUT CONTROL FOR STRESS PERIOD   31   TIME STEP   24
 
 SOLVING FOR HEAD 
                                                   Max.-Head-Change                         Max.-Flux-Residual
  Residual-Control   Outer-Iter.   Inner-Iter.     Column Row Layer    Maximum-Head-Change  Column Row Layer    Maximum-Flux-Residual          L2-NORM 
          0                 1           2             4   13     1       0.8506951062E-02       4   13    1         0.4890675744E+00      0.1185230536E+01
          0                 2           2             4   13     1      -0.8191069753E-03       4   13    1        -0.4841863358E-01      0.1170587866E+00
          0                 3           2             4    7     1      -0.6969983809E-01       5    6    1        -0.3743389896E+01      0.9213968013E+01
          0                 4           2             4    7     1       0.7258465883E-01       5    6    1         0.4006971160E+01      0.9815190455E+01
          0                 5           2             4    7     1      -0.2887779247E-02       4    8    1        -0.1638698684E+00      0.4013849700E+00
          0                 6           1             4    7     1       0.3563386394E-04       4    8    1         0.2078254349E-02      0.5090502626E-02

    ------------------------------------------------
       NWT REQUIRED            6 OUTER ITERATIONS 
       AND A TOTAL OF         11 INNER ITERATIONS.
    ------------------------------------------------

 NO OUTPUT CONTROL FOR STRESS PERIOD   31   TIME STEP   25
 
 SOLVING FOR HEAD 
                                                   Max.-Head-Change                         Max.-Flux-Residual
  Residual-Control   Outer-Iter.   Inner-Iter.     Column Row Layer    Maximum-Head-Change  Column Row Layer    Maximum-Flux-Residual          L2-NORM 
          0                 1           2             4   13     1       0.8586148611E-02       4   13    1         0.4935958892E+00      0.1189094474E+01
          0                 2           2             4   13     1      -0.8267108900E-03       4   13    1        -0.4886564823E-01      0.1174139374E+00
          0                 3           2             4    7     1      -0.6969998839E-01       5    6    1        -0.3743399027E+01      0.9214017526E+01
          0                 4           2             4    7     1       0.7258465563E-01       5    6    1         0.4006971561E+01      0.9815191549E+01
          0                 5           2             4    7     1      -0.2887779120E-02       4    8    1        -0.1638698853E+00      0.4013850228E+00
          0                 6           1             4    7     1       0.3563386181E-04       4    8    1         0.2078254541E-02      0.5090509124E-02

    ------------------------------------------------
       NWT REQUIRED            6 OUTER ITERATIONS 
       AND A TOTAL OF         11 INNER ITERATIONS.
    ------------------------------------------------

 NO OUTPUT CONTROL FOR STRESS PERIOD   31   TIME STEP   26
 
 SOLVING FOR HEAD 
                                                   Max.-Head-Change                         Max.-Flux-Residual
  Residual-Control   Outer-Iter.   Inner-Iter.     Column Row Layer    Maximum-Head-Change  Column Row Layer    Maximum-Flux-Residual          L2-NORM 
          0                 1           2             4   13     1       0.8658466764E-02       4   13    1         0.4977285322E+00      0.1192593038E+01
          0                 2           2             4   13     1      -0.8336658699E-03       4   13    1        -0.4927427286E-01      0.1177359826E+00
          0                 3           2             4    7     1      -0.6970013743E-01       5    6    1        -0.3743407956E+01      0.9214064519E+01
          0                 4           2             4    7     1       0.7258463513E-01       5    6    1         0.4006970994E+01      0.9815190260E+01
          0                 5           2             4    7     1      -0.2887761497E-02       4    8    1        -0.1638689090E+00      0.4013826307E+00
          0                 6           1             4    7     1       0.3563364427E-04       4    8    1         0.2078242160E-02      0.5090479774E-02

    ------------------------------------------------
       NWT REQUIRED            6 OUTER ITERATIONS 
       AND A TOTAL OF         11 INNER ITERATIONS.
    ------------------------------------------------

 NO OUTPUT CONTROL FOR STRESS PERIOD   31   TIME STEP   27
 
 SOLVING FOR HEAD 
                                                   Max.-Head-Change                         Max.-Flux-Residual
  Residual-Control   Outer-Iter.   Inner-Iter.     Column Row Layer    Maximum-Head-Change  Column Row Layer    Maximum-Flux-Residual          L2-NORM 
          0                 1           2             4   13     1       0.8724555724E-02       4   13    1         0.5015028439E+00      0.1195759820E+01
          0                 2           2             4   13     1      -0.8400301579E-03       4   13    1        -0.4964798288E-01      0.1180259988E+00
          0                 3           2             4    7     1      -0.6970028253E-01       5    6    1        -0.3743416341E+01      0.9214109171E+01
          0                 4           2             4    7     1       0.7258461581E-01       5    6    1         0.4006970469E+01      0.9815189096E+01
          0                 5           2             4    7     1      -0.2887749524E-02       4    8    1        -0.1638682529E+00      0.4013810214E+00
          0                 6           1             4    7     1       0.3563349686E-04       4    8    1         0.2078233860E-02      0.5090458679E-02

    ------------------------------------------------
       NWT REQUIRED            6 OUTER ITERATIONS 
       AND A TOTAL OF         11 INNER ITERATIONS.
    ------------------------------------------------

 NO OUTPUT CONTROL FOR STRESS PERIOD   31   TIME STEP   28
 
 SOLVING FOR HEAD 
                                                   Max.-Head-Change                         Max.-Flux-Residual
  Residual-Control   Outer-Iter.   Inner-Iter.     Column Row Layer    Maximum-Head-Change  Column Row Layer    Maximum-Flux-Residual          L2-NORM 
          0                 1           2             4   13     1       0.8784988647E-02       4   13    1         0.5049520288E+00      0.1198610914E+01
          0                 2           2             4   13     1      -0.8458435027E-03       4   13    1        -0.4998907985E-01      0.1182872369E+00
          0                 3           2             4    7     1      -0.6970043243E-01       5    6    1        -0.3743424791E+01      0.9214152298E+01
          0                 4           2             4    7     1       0.7258460116E-01       5    6    1         0.4006970186E+01      0.9815188529E+01
          0                 5           2             4    7     1      -0.2887737736E-02       4    8    1        -0.1638676069E+00      0.4013794459E+00
          0                 6           1             4    7     1       0.3563335124E-04       4    8    1         0.2078225643E-02      0.5090436996E-02

    ------------------------------------------------
       NWT REQUIRED            6 OUTER ITERATIONS 
       AND A TOTAL OF         11 INNER ITERATIONS.
    ------------------------------------------------

 NO OUTPUT CONTROL FOR STRESS PERIOD   31   TIME STEP   29
 
 SOLVING FOR HEAD 
                                                   Max.-Head-Change                         Max.-Flux-Residual
  Residual-Control   Outer-Iter.   Inner-Iter.     Column Row Layer    Maximum-Head-Change  Column Row Layer    Maximum-Flux-Residual          L2-NORM 
          0                 1           2             4   13     1       0.8840288908E-02       4   13    1         0.5081063733E+00      0.1201173624E+01
          0                 2           2             4   13     1      -0.8511570817E-03       4   13    1        -0.5030072694E-01      0.1185187863E+00
          0                 3           2             4    7     1      -0.6970058082E-01       5    6    1        -0.3743433018E+01      0.9214193870E+01
          0                 4           2             4    7     1       0.7258458647E-01       5    6    1         0.4006969888E+01      0.9815187927E+01
          0                 5           2             4    7     1      -0.2887725947E-02       4    8    1        -0.1638669606E+00      0.4013778461E+00
          0                 6           1             4    7     1       0.3563320573E-04       4    8    1         0.2078217453E-02      0.5090414203E-02

    ------------------------------------------------
       NWT REQUIRED            6 OUTER ITERATIONS 
       AND A TOTAL OF         11 INNER ITERATIONS.
    ------------------------------------------------

 NO OUTPUT CONTROL FOR STRESS PERIOD   31   TIME STEP   30



 STREAM LISTING     PERIOD     31   STEP       30

 LAYER ROW COL. STREAM  RCH.  FLOW INTO     FLOW TO   FLOW OUT OF   OVRLND.     DIRECT     STREAM       STREAM     STREAM     STREAM   STREAMBED  STREAMBED
                SEG.NO.  NO.  STRM. RCH.    AQUIFER    STRM. RCH.    RUNOFF     PRECIP       ET          HEAD       DEPTH      WIDTH   CONDCTNC.   GRADIENT

   1    1    1     1     1    3.1124E+01  2.7164E-01   3.0852E+01  0.000E+00  0.000E+00  0.000E+00  1.09431E+03  1.259E+00  1.417E+01  6.378E-02  1.420E+00
   1    2    2     1     2    3.0852E+01  4.2045E-01   3.0432E+01  0.000E+00  0.000E+00  0.000E+00  1.08931E+03  1.256E+00  1.411E+01  9.879E-02  1.419E+00
   1    3    3     1     3    3.0432E+01  3.5834E-01   3.0074E+01  0.000E+00  0.000E+00  0.000E+00  1.08367E+03  1.252E+00  1.404E+01  8.427E-02  1.417E+00
   1    3    4     1     4    3.0074E+01  3.2975E-01   2.9744E+01  0.000E+00  0.000E+00  0.000E+00  1.07866E+03  1.249E+00  1.398E+01  7.761E-02  1.416E+00
   1    4    5     2     1    2.7744E+01  3.3390E-01   2.7410E+01  0.000E+00  0.000E+00  0.000E+00  1.07321E+03  1.281E+00  1.200E+01  7.800E-02  1.427E+00
   1    5    6     2     2    2.7410E+01  2.5635E-01   2.7154E+01  0.000E+00  0.000E+00  0.000E+00  1.06778E+03  1.273E+00  1.200E+01  6.000E-02  1.424E+00
   1    6    6     2     3    2.7154E+01  2.5592E-01   2.6898E+01  0.000E+00  0.000E+00  0.000E+00  1.06306E+03  1.265E+00  1.200E+01  6.000E-02  1.422E+00
   1    7    6     2     4    2.6898E+01  2.5549E-01   2.6642E+01  0.000E+00  0.000E+00  0.000E+00  1.05833E+03  1.258E+00  1.200E+01  6.000E-02  1.419E+00
   1    8    6     2     5    2.6642E+01  2.5506E-01   2.6387E+01  0.000E+00  0.000E+00  0.000E+00  1.05361E+03  1.251E+00  1.200E+01  6.000E-02  1.417E+00
   1    3    5     3     1    2.0000E+00  2.8252E-01   1.7175E+00  0.000E+00  0.000E+00  0.000E+00  1.07555E+03  1.909E+00  9.636E+00  7.227E-02  1.955E+00
   1    3    6     3     2    1.7175E+00  2.4905E-01   1.4684E+00  0.000E+00  0.000E+00  0.000E+00  1.07264E+03  1.727E+00  8.909E+00  6.682E-02  1.864E+00
   1    3    7     3     3    1.4684E+00  1.9718E-01   1.2712E+00  0.000E+00  0.000E+00  0.000E+00  1.06987E+03  1.555E+00  8.218E+00  5.547E-02  1.777E+00
   1    4    8     3     4    1.2712E+00  2.2567E-01   1.0456E+00  0.000E+00  0.000E+00  0.000E+00  1.06682E+03  1.364E+00  7.455E+00  6.709E-02  1.682E+00
   1    5    8     3     5    1.0456E+00  1.5790E-01   8.8768E-01  0.000E+00  0.000E+00  0.000E+00  1.06362E+03  1.164E+00  6.655E+00  4.991E-02  1.582E+00
   1    6    8     3     6    8.8768E-01  5.5980E-02   8.3170E-01  0.000E+00  0.000E+00  0.000E+00  1.06158E+03  1.036E+00  6.145E+00  1.844E-02  1.518E+00
   1    5   10     4     1    1.0000E+01  9.0919E-02   9.9091E+00  0.000E+00  0.000E+00  0.000E+00  1.07836E+03  6.368E-01  1.000E+01  2.500E-02  1.212E+00
   1    5    9     4     2    9.9091E+00  1.8158E-01   9.7275E+00  0.000E+00  0.000E+00  0.000E+00  1.07154E+03  6.315E-01  1.000E+01  5.000E-02  1.211E+00
   1    6    8     4     3    9.7275E+00  1.2689E-01   9.6006E+00  0.000E+00  0.000E+00  0.000E+00  1.06381E+03  6.256E-01  1.000E+01  3.500E-02  1.209E+00
   1    6    8     5     1    1.0432E+01  2.2686E-01   1.0205E+01  0.000E+00  0.000E+00  0.000E+00  1.05868E+03  6.790E-01  1.542E+01  6.166E-02  1.226E+00
   1    7    7     5     2    1.0205E+01  2.7894E-01   9.9265E+00  0.000E+00  0.000E+00  0.000E+00  1.05417E+03  6.732E-01  1.519E+01  7.594E-02  1.224E+00
   1    8    7     5     3    9.9265E+00  1.9221E-01   9.7343E+00  0.000E+00  0.000E+00  0.000E+00  1.04992E+03  6.676E-01  1.497E+01  5.241E-02  1.223E+00
   1    8    6     5     4    9.7343E+00  1.3577E-01   9.5985E+00  0.000E+00  0.000E+00  0.000E+00  1.04691E+03  6.637E-01  1.482E+01  3.706E-02  1.221E+00
   1    9    6     6     1    1.3515E+01  2.3040E-01   1.3285E+01  0.000E+00  0.000E+00  0.000E+00  1.04357E+03  8.399E-01  1.200E+01  6.000E-02  1.280E+00
   1   10    7     6     2    1.3285E+01  2.2987E-01   1.3055E+01  0.000E+00  0.000E+00  0.000E+00  1.03901E+03  8.312E-01  1.200E+01  6.000E-02  1.277E+00
   1   11    7     6     3    1.3055E+01  2.2935E-01   1.2826E+01  0.000E+00  0.000E+00  0.000E+00  1.03446E+03  8.225E-01  1.200E+01  6.000E-02  1.274E+00
   1   12    7     6     4    1.2826E+01  2.2882E-01   1.2597E+01  0.000E+00  0.000E+00  0.000E+00  1.02990E+03  8.137E-01  1.200E+01  6.000E-02  1.271E+00
   1   13    7     6     5    1.2597E+01  3.6999E-03   1.2593E+01  0.000E+00  0.000E+00  0.000E+00  1.02672E+03  8.093E-01  1.200E+01  2.400E-02  5.139E-02
   1   14    9     7     1    1.5000E+02  1.3889E+00   1.4861E+02  0.000E+00  0.000E+00  0.000E+00  1.03987E+03  2.288E+00  5.529E+01  5.593E-01  8.278E-01
   1   13    8     7     2    1.4861E+02  2.0011E+00   1.4661E+02  0.000E+00  0.000E+00  0.000E+00  1.03478E+03  2.279E+00  5.525E+01  6.147E-01  1.085E+00
   1   13    7     7     3    1.4661E+02  1.7441E+00   1.4487E+02  0.000E+00  0.000E+00  0.000E+00  1.02969E+03  2.269E+00  5.521E+01  5.584E-01  1.041E+00
   1   13    6     8     1    1.5746E+02  1.1140E+00   1.5635E+02  0.000E+00  0.000E+00  0.000E+00  1.02474E+03  2.865E+00  4.154E+01  4.233E-01  8.772E-01
   1   13    5     8     2    1.5635E+02  3.6022E-01   1.5599E+02  0.000E+00  0.000E+00  0.000E+00  1.01848E+03  2.860E+00  4.147E+01  4.226E-01  2.842E-01
   1   13    4     8     3    1.5599E+02 -1.8080E+00   1.5779E+02  0.000E+00  0.000E+00  0.000E+00  1.01224E+03  2.865E+00  4.154E+01  4.233E+00 -1.424E-01
   1   13    3     8     4    1.5779E+02 -3.3500E+00   1.6114E+02  0.000E+00  0.000E+00  0.000E+00  1.00601E+03  2.882E+00  4.179E+01  4.259E+00 -2.622E-01
   1   13    2     8     5    1.6114E+02 -2.5415E+00   1.6368E+02  0.000E+00  0.000E+00  0.000E+00  9.99777E+02  2.902E+00  4.208E+01  4.288E+00 -1.976E-01
   1   13    1     8     6    1.6368E+02 -2.0111E+00   1.6570E+02  0.000E+00  0.000E+00  0.000E+00  9.94792E+02  2.917E+00  4.230E+01  2.586E+00 -2.592E-01
   1    8    6     9     1    2.2470E+01  0.0000E+00   2.2470E+01  0.000E+00  0.000E+00  0.000E+00  1.08243E+03  3.683E+00  4.000E+00  0.000E+00  2.228E+00
   1    8    5     9     2    2.2470E+01  0.0000E+00   2.2470E+01  0.000E+00  0.000E+00  0.000E+00  1.08193E+03  3.683E+00  4.000E+00  0.000E+00  2.228E+00





UNSATURATED ZONE PACKAGE VOLUMETRIC BUDGET FOR  TIME STEP    30 STRESS PERIOD   31
  ------------------------------------------------------------------------------



     CUMULATIVE VOLUMES      L**3       RATES FOR THIS TIME STEP      L**3/T
     ------------------                 ------------------------

           IN:                                      IN:
           ---                                      ---
        INFILTRATION =  1187353491.1809          INFILTRATION =          23.3182

          OUT:                                     OUT:
          ----                                     ----
              UZF ET =   952809341.9153                UZF ET =          23.3175
        UZF RECHARGE =       73224.0000          UZF RECHARGE =       0.0000E+00

            IN - OUT =   234470925.2657              IN - OUT =       6.6376E-04

          STORAGE:                                 STORAGE:
          --------                                 --------
      STORAGE CHANGE =   234471131.5102        STORAGE CHANGE =       6.6293E-04

 PERCENT DISCREPANCY IS DIFFERENCE BETWEEN IN-OUT MINUS CHANGE IN STORAGE
 DIVIDED BY THE AVERAGE OF IN AND OUT TIMES 100

 PERCENT DISCREPANCY =          -0.00     PERCENT DISCREPANCY =           0.00






1
  VOLUMETRIC BUDGET FOR AGRICULTURAL FIELDS AT  END OF TIME STEP   30, STRESS PERIOD  31
  ------------------------------------------------------------------------------

     CUMULATIVE VOLUMES      L**3       RATES FOR THIS TIME STEP      L**3/T
     ------------------                 ------------------------

           IN:                                      IN:
           ---                                      ---
               AG WELLS  =   667136512.0000                 AG WELLS  =           0.0000
      DIVERSION SEGMENTS =   453371392.0000        DIVERSION SEGMENTS =          22.4702
       IRRIGATION PONDS  =           0.0000         IRRIGATION PONDS  =           0.0000
           GW IRRIGATION =           0.0000             GW IRRIGATION =           0.0000
           SW IRRIGATION =           0.0000             SW IRRIGATION =           0.0000
        SYSTEM LOSSES GW =           0.0000          SYSTEM LOSSES GW =           0.0000
        SYSTEM LOSSES SW =           0.0000          SYSTEM LOSSES SW =           0.0000

                TOTAL IN =  1120507904.0000                  TOTAL IN =          22.4702

          OUT:                                     OUT:
          ----                                     ----
               AG WELLS  =           0.0000                 AG WELLS  =           0.0000
      DIVERSION SEGMENTS =           0.0000        DIVERSION SEGMENTS =           0.0000
       IRRIGATION PONDS  =           0.0000         IRRIGATION PONDS  =           0.0000
           GW IRRIGATION =   667136512.0000             GW IRRIGATION =           0.0000
           SW IRRIGATION =   453380448.0000             SW IRRIGATION =          22.4707
        SYSTEM LOSSES GW =           0.0000          SYSTEM LOSSES GW =           0.0000
        SYSTEM LOSSES SW =           0.0000          SYSTEM LOSSES SW =           0.0000

               TOTAL OUT =  1120516992.0000                 TOTAL OUT =          22.4707

                IN - OUT =       -9088.0000                  IN - OUT =      -4.4823E-04

     PERCENT DISCREPANCY =          -0.00         PERCENT DISCREPANCY =          -0.00



1
  VOLUMETRIC BUDGET FOR ENTIRE MODEL AT END OF TIME STEP   30, STRESS PERIOD  31
  ------------------------------------------------------------------------------

     CUMULATIVE VOLUMES      L**3       RATES FOR THIS TIME STEP      L**3/T
     ------------------                 ------------------------

           IN:                                      IN:
           ---                                      ---
             STORAGE     =  1068302016.0000               STORAGE     =           1.7511
       CONSTANT HEAD     =           0.0000         CONSTANT HEAD     =           0.0000
     HEAD DEP BOUNDS     =    22774792.0000       HEAD DEP BOUNDS     =           0.2894
      STREAM LEAKAGE     =   939715200.0000        STREAM LEAKAGE     =          12.6688
        UZF RECHARGE     =       73223.9531          UZF RECHARGE     =           0.0000
               GW ET     =           0.0000                 GW ET     =           0.0000
     SURFACE LEAKAGE     =           0.0000       SURFACE LEAKAGE     =           0.0000
           AG WELLS      =           0.0000             AG WELLS      =           0.0000

                TOTAL IN =  2030865280.0000                  TOTAL IN =          14.7093

          OUT:                                     OUT:
          ----                                     ----
             STORAGE     =   553395648.0000               STORAGE     =           4.7109
       CONSTANT HEAD     =           0.0000         CONSTANT HEAD     =           0.0000
     HEAD DEP BOUNDS     =    22740912.0000       HEAD DEP BOUNDS     =           0.2877
      STREAM LEAKAGE     =   787601920.0000        STREAM LEAKAGE     =           9.7105
        UZF RECHARGE     =           0.0000          UZF RECHARGE     =           0.0000
               GW ET     =           0.0000                 GW ET     =           0.0000
     SURFACE LEAKAGE     =           0.0000       SURFACE LEAKAGE     =           0.0000
           AG WELLS      =   667136512.0000             AG WELLS      =           0.0000

               TOTAL OUT =  2030875008.0000                 TOTAL OUT =          14.7091

                IN - OUT =       -9728.0000                  IN - OUT =       1.8883E-04

     PERCENT DISCREPANCY =          -0.00         PERCENT DISCREPANCY =           0.00






         TIME SUMMARY AT END OF TIME STEP   30 IN STRESS PERIOD   31
                    SECONDS     MINUTES      HOURS       DAYS        YEARS
                    -----------------------------------------------------------
   TIME STEP LENGTH  87667.      1461.1      24.352      1.0147     2.77799E-03
 STRESS PERIOD TIME 2.63000E+06  43833.      730.56      30.440     8.33397E-02
         TOTAL TIME 7.89864E+07 1.31644E+06  21941.      914.20      2.5029    
1
1
                            STRESS PERIOD NO.   32, LENGTH =   2630000.    
                            -----------------------------------------------

                              NUMBER OF TIME STEPS =    30

                               MULTIPLIER FOR DELT =     1.000

                            INITIAL TIME STEP SIZE =   87666.66    

 REUSING NON-PARAMETER GHB CELLS FROM LAST STRESS PERIOD

      2 GHB CELLS

 REUSING STREAM SEGMENT DATA FROM LAST STRESS PERIOD



            AREAL INFILTRATION RATE
 READING ON UNIT   19 WITH FORMAT: (FREE)              

            1           2           3           4           5           6           7           8           9          10
 ........................................................................................................................
   1   1.0000E-10  2.0000E-10   0.000       0.000       0.000       0.000       0.000       0.000       0.000       0.000    
   2   2.0000E-10  1.0000E-10  2.0000E-10   0.000       0.000      8.0000E-10  8.0000E-10  5.0000E-10   0.000       0.000    
   3    0.000      5.0000E-10  1.0000E-10  1.0000E-10  8.0000E-10  8.0000E-10  5.0000E-10  5.0000E-10   0.000       0.000    
   4   8.0000E-10  5.0000E-10  1.0000E-10  1.0000E-10  1.0000E-10  1.0000E-10  1.0000E-10  1.0000E-10  2.0000E-10   0.000    
   5   8.0000E-10  5.0000E-10  1.0000E-10  1.0000E-10  1.0000E-10  1.0000E-10  1.0000E-10  1.0000E-10  1.0000E-10  1.0000E-10
   6   8.0000E-10  5.0000E-10  5.0000E-10  2.0000E-10  2.0000E-10  1.0000E-10  1.0000E-10  1.0000E-10  1.0000E-10  5.0000E-10
   7   8.0000E-10  5.0000E-10  5.0000E-10  2.0000E-10  2.0000E-10  1.0000E-10  1.0000E-10  2.0000E-10  2.0000E-10   0.000    
   8    0.000      5.0000E-10  5.0000E-10  2.0000E-10  2.0000E-10  1.0000E-10  1.0000E-10  2.0000E-10  5.0000E-10   0.000    
   9    0.000      5.0000E-10  5.0000E-10  2.0000E-10  2.0000E-10  1.0000E-10  1.0000E-10  2.0000E-10  5.0000E-10   0.000    
  10    0.000      5.0000E-10  5.0000E-10  2.0000E-10  2.0000E-10  1.0000E-10  1.0000E-10  2.0000E-10  5.0000E-10  8.0000E-10
  11    0.000      1.0000E-10  1.0000E-10  1.0000E-10  1.0000E-10  1.0000E-10  1.0000E-10  2.0000E-10  5.0000E-10   0.000    
  12   1.0000E-10  1.0000E-10  1.0000E-10  1.0000E-10  1.0000E-10  1.0000E-10  1.0000E-10  1.0000E-10  2.0000E-10   0.000    
  13   1.0000E-10  1.0000E-10  2.0000E-10  2.0000E-10  2.0000E-10  2.0000E-10  2.0000E-10  1.0000E-10  1.0000E-10   0.000    
  14    0.000      2.0000E-10  5.0000E-10  5.0000E-10  5.0000E-10  5.0000E-10  5.0000E-10  2.0000E-10  1.0000E-10   0.000    
  15    0.000       0.000      8.0000E-10  8.0000E-10  8.0000E-10  8.0000E-10   0.000       0.000       0.000       0.000    

                  ET RATE =  4.000000E-07

 USING ET EXTINCTION DEPTH FROM PREVIOUS STRESS PERIOD. CURRENT PERIOD IS:      32

 USING EXTINCTION WATER CONTENT FROM PREVIOUS STRESS PERIOD. CURRENT PERIOD IS:      32

 USING AIR ENTRY PRESSURE FROM PREVIOUS STRESS PERIOD. CURRENT PERIOD IS:      32

 USING ROOT PRESSURE HEAD FROM PREVIOUS STRESS PERIOD. CURRENT PERIOD IS:      32

 USING ROOT ACTIVITY FROM PREVIOUS STRESS PERIOD. CURRENT PERIOD IS:      32

 PROCESSING AG STRESS PERIOD DATA

 READING AG STRESS PERIOD DATA

 READING IRRIGATION SEGMENT

 READING IRRIGATION WELL

 READING SUPPLEMENTAL WELL

 NO IRRPOND OR REUSING IRRPOND DATA FROM LAST STRESS PERIOD

 END PROCESSING AG STRESS PERIOD DATA OPTIONS
 
 SOLVING FOR HEAD 
                                                   Max.-Head-Change                         Max.-Flux-Residual
  Residual-Control   Outer-Iter.   Inner-Iter.     Column Row Layer    Maximum-Head-Change  Column Row Layer    Maximum-Flux-Residual          L2-NORM 
          0                 1           2             4    7     1       0.5074520766E-02       4    7    1         0.2649047905E+00      0.8990938934E+00
          0                 2           2             4    7     1      -0.2286143825E+00       4    7    1        -0.1227727824E+02      0.3006634741E+02
          0                 3           2             4    7     1       0.1557134712E-01       5    7    1         0.8592061749E+00      0.2102477372E+01
          0                 4           2             4    7     1      -0.6248850125E-03       4    7    1        -0.3547706786E-01      0.8613059597E-01
          0                 5           1             4    7     1       0.7705096184E-05       4    7    1         0.4496351553E-03      0.1091568305E-02

    ------------------------------------------------
       NWT REQUIRED            5 OUTER ITERATIONS 
       AND A TOTAL OF          9 INNER ITERATIONS.
    ------------------------------------------------

 NO OUTPUT CONTROL FOR STRESS PERIOD   32   TIME STEP    1
 
 SOLVING FOR HEAD 
                                                   Max.-Head-Change                         Max.-Flux-Residual
  Residual-Control   Outer-Iter.   Inner-Iter.     Column Row Layer    Maximum-Head-Change  Column Row Layer    Maximum-Flux-Residual          L2-NORM 
          0                 1           2             5    8     1       0.1056251443E-01       5    8    1         0.5699343397E+00      0.1444104149E+01
          0                 2           2             4    7     1      -0.2794297089E-01       5    8    1        -0.1524118957E+01      0.3736768378E+01
          0                 3           2             4    7     1      -0.4502001682E-01       4    7    1        -0.2416398974E+01      0.5942467950E+01
          0                 4           2             4    7     1       0.4533019225E-01       4    7    1         0.2501005624E+01      0.6126043769E+01
          0                 5           2             4    7     1      -0.3358097681E-02       4    8    1        -0.1904419726E+00      0.4664525614E+00
          0                 6           2             4    7     1      -0.2046180428E-01       5    8    1        -0.1160399190E+01      0.2842380474E+01
          0                 7           2             4    7     1       0.2526865467E-03       4    6    1         0.1472818290E-01      0.3607757365E-01
          0                 8           1             4    7     1       0.3711562455E-05       5    8    1         0.2166737445E-03      0.5309175153E-03

    ------------------------------------------------
       NWT REQUIRED            8 OUTER ITERATIONS 
       AND A TOTAL OF         15 INNER ITERATIONS.
    ------------------------------------------------

 NO OUTPUT CONTROL FOR STRESS PERIOD   32   TIME STEP    2
 
 SOLVING FOR HEAD 
                                                   Max.-Head-Change                         Max.-Flux-Residual
  Residual-Control   Outer-Iter.   Inner-Iter.     Column Row Layer    Maximum-Head-Change  Column Row Layer    Maximum-Flux-Residual          L2-NORM 
          0                 1           2             5    8     1       0.1170501214E-01       5    8    1         0.6325885729E+00      0.1545990737E+01
          0                 2           2             4    7     1      -0.9404238035E-01       5    8    1        -0.5075418156E+01      0.1244553501E+02
          0                 3           2             4    7     1      -0.4791075785E+00       4    7    1        -0.2571490850E+02      0.6298575027E+02
          0                 4           2             4    7     1       0.3262538314E-01       5    8    1         0.1805163715E+01      0.4405126177E+01
          0                 5           2             4    7     1      -0.1298509192E-02       5    8    1        -0.7381731057E-01      0.1802096703E+00
          0                 6           1             4    7     1       0.1602305690E-04       5    8    1         0.9340252468E-03      0.2294496316E-02

    ------------------------------------------------
       NWT REQUIRED            6 OUTER ITERATIONS 
       AND A TOTAL OF         11 INNER ITERATIONS.
    ------------------------------------------------

 NO OUTPUT CONTROL FOR STRESS PERIOD   32   TIME STEP    3
 
 SOLVING FOR HEAD 
                                                   Max.-Head-Change                         Max.-Flux-Residual
  Residual-Control   Outer-Iter.   Inner-Iter.     Column Row Layer    Maximum-Head-Change  Column Row Layer    Maximum-Flux-Residual          L2-NORM 
          0                 1           2             5    8     1       0.2754030003E-01       5    8    1         0.1506208727E+01      0.3148983968E+01
          0                 2           2             5    8     1      -0.4173579392E-02       5    8    1        -0.2329128477E+00      0.5289699767E+00
          0                 3           2             4    7     1      -0.6960019118E-01       4    7    1        -0.3735710956E+01      0.9187593819E+01
          0                 4           2             4    7     1       0.7116184440E-01       4    7    1         0.3926173128E+01      0.9616689998E+01
          0                 5           2             4    7     1      -0.1997835316E-01       5    8    1        -0.1133007736E+01      0.2775262178E+01
          0                 6           2             4    7     1      -0.1740577232E-02       4    7    1        -0.9870631369E-01      0.2417674228E+00
          0                 7           1             4    7     1       0.2149492076E-04       5    8    1         0.1254300875E-02      0.3073253105E-02

    ------------------------------------------------
       NWT REQUIRED            7 OUTER ITERATIONS 
       AND A TOTAL OF         13 INNER ITERATIONS.
    ------------------------------------------------

 NO OUTPUT CONTROL FOR STRESS PERIOD   32   TIME STEP    4
 
 SOLVING FOR HEAD 
                                                   Max.-Head-Change                         Max.-Flux-Residual
  Residual-Control   Outer-Iter.   Inner-Iter.     Column Row Layer    Maximum-Head-Change  Column Row Layer    Maximum-Flux-Residual          L2-NORM 
          0                 1           2             5    8     1       0.2686885655E-01       5    8    1         0.1468194878E+01      0.3101525446E+01
          0                 2           2             4    7     1      -0.9238195968E-01       5    8    1        -0.5050750499E+01      0.1231862561E+02
          0                 3           2             4    7     1      -0.5643473780E+00       4    7    1        -0.3028962588E+02      0.7418488456E+02
          0                 4           2             4    7     1       0.3843358094E-01       4    7    1         0.2120425169E+01      0.5192977172E+01
          0                 5           2             4    7     1      -0.1529679477E-02       4    7    1        -0.8674335840E-01      0.2124404022E+00
          0                 6           1             4    7     1       0.1887560015E-04       4    7    1         0.1099899864E-02      0.2706080907E-02

    ------------------------------------------------
       NWT REQUIRED            6 OUTER ITERATIONS 
       AND A TOTAL OF         11 INNER ITERATIONS.
    ------------------------------------------------

 NO OUTPUT CONTROL FOR STRESS PERIOD   32   TIME STEP    5
 
 SOLVING FOR HEAD 
                                                   Max.-Head-Change                         Max.-Flux-Residual
  Residual-Control   Outer-Iter.   Inner-Iter.     Column Row Layer    Maximum-Head-Change  Column Row Layer    Maximum-Flux-Residual          L2-NORM 
          0                 1           2             5    8     1       0.4470472793E-01       5    8    1         0.2451382933E+01      0.5104903600E+01
          0                 2           2             5    8     1      -0.5887705026E-02       5    8    1        -0.3298796347E+00      0.7146133544E+00
          0                 3           2             4    7     1      -0.6480369602E-01       4    7    1        -0.3478347003E+01      0.8547304096E+01
          0                 4           2             4    7     1       0.6566586338E-01       4    7    1         0.3622929334E+01      0.8873212410E+01
          0                 5           2             4    7     1      -0.6681100244E-03       5    8    1        -0.3790240921E-01      0.9408615101E-01
          0                 6           2             4    7     1      -0.4876433815E-02       4    8    1        -0.2765386333E+00      0.6773787834E+00
          0                 7           2             4    7     1      -0.1581856210E-01       4    7    1        -0.8970488613E+00      0.2197307857E+01
          0                 8           2             4    7     1       0.1955008397E-03       5    8    1         0.1140616570E-01      0.2794342609E-01
          0                 9           1             4    7     1       0.2869699309E-05       5    8    1         0.1674260448E-03      0.4101696517E-03

    ------------------------------------------------
       NWT REQUIRED            9 OUTER ITERATIONS 
       AND A TOTAL OF         17 INNER ITERATIONS.
    ------------------------------------------------

 NO OUTPUT CONTROL FOR STRESS PERIOD   32   TIME STEP    6
 
 SOLVING FOR HEAD 
                                                   Max.-Head-Change                         Max.-Flux-Residual
  Residual-Control   Outer-Iter.   Inner-Iter.     Column Row Layer    Maximum-Head-Change  Column Row Layer    Maximum-Flux-Residual          L2-NORM 
          0                 1           2             5    8     1       0.4308885053E-01       5    8    1         0.2360566677E+01      0.4962349970E+01
          0                 2           2             5    6     1      -0.9336923244E-01       5    8    1        -0.5144426168E+01      0.1247912997E+02
          0                 3           2             4    7     1      -0.5323515719E+00       4    7    1        -0.2857222872E+02      0.6997158390E+02
          0                 4           2             4    7     1       0.3625467003E-01       4    7    1         0.2000267384E+01      0.4899124426E+01
          0                 5           2             4    7     1      -0.1442956949E-02       4    7    1        -0.8183216074E-01      0.2004569391E+00
          0                 6           1             4    7     1       0.1780548193E-04       5    8    1         0.1037997408E-02      0.2542815503E-02

    ------------------------------------------------
       NWT REQUIRED            6 OUTER ITERATIONS 
       AND A TOTAL OF         11 INNER ITERATIONS.
    ------------------------------------------------

 NO OUTPUT CONTROL FOR STRESS PERIOD   32   TIME STEP    7
 
 SOLVING FOR HEAD 
                                                   Max.-Head-Change                         Max.-Flux-Residual
  Residual-Control   Outer-Iter.   Inner-Iter.     Column Row Layer    Maximum-Head-Change  Column Row Layer    Maximum-Flux-Residual          L2-NORM 
          0                 1           2             5    8     1       0.5911822562E-01       5    8    1         0.3243467693E+01      0.6819342219E+01
          0                 2           2             5    8     1      -0.7375826702E-02       5    8    1        -0.4138270183E+00      0.8884124267E+00
          0                 3           2             4    7     1      -0.6632099719E-01       4    7    1        -0.3559831051E+01      0.8742556106E+01
          0                 4           2             4    7     1       0.6723984634E-01       4    7    1         0.3709745785E+01      0.9085499500E+01
          0                 5           2             4    7     1      -0.1502782133E-02       4    7    1        -0.8522664124E-01      0.2087980351E+00
          0                 6           2             4    7     1      -0.1502777722E-02       4    8    1        -0.8522068336E-01      0.2087470888E+00
          0                 7           2             4    7     1      -0.1678169847E-02       4    7    1        -0.9516590956E-01      0.2331066431E+00
          0                 8           2             4    7     1      -0.1662404355E-01       4    7    1        -0.9427102102E+00      0.2309157552E+01
          0                 9           2             4    7     1       0.2056174047E-03       5    8    1         0.1199615379E-01      0.2938869914E-01
          0                10           1             4    7     1       0.3016202752E-05       5    8    1         0.1759698530E-03      0.4311027331E-03

    ------------------------------------------------
       NWT REQUIRED           10 OUTER ITERATIONS 
       AND A TOTAL OF         19 INNER ITERATIONS.
    ------------------------------------------------

 NO OUTPUT CONTROL FOR STRESS PERIOD   32   TIME STEP    8
 
 SOLVING FOR HEAD 
                                                   Max.-Head-Change                         Max.-Flux-Residual
  Residual-Control   Outer-Iter.   Inner-Iter.     Column Row Layer    Maximum-Head-Change  Column Row Layer    Maximum-Flux-Residual          L2-NORM 
          0                 1           2             5    8     1       0.5673037486E-01       5    8    1         0.3109563475E+01      0.6598363133E+01
          0                 2           2             5    8     1      -0.9459233643E-01       5    8    1        -0.5215114164E+01      0.1260171474E+02
          0                 3           2             4    7     1      -0.5450020682E+00       4    7    1        -0.2925102747E+02      0.7162921209E+02
          0                 4           2             4    7     1       0.3711623509E-01       4    7    1         0.2047789884E+01      0.5015190616E+01
          0                 5           2             4    7     1      -0.1477247933E-02       4    7    1        -0.8377635785E-01      0.2052061807E+00
          0                 6           1             4    7     1       0.1822861786E-04       5    8    1         0.1062541430E-02      0.2603062895E-02

    ------------------------------------------------
       NWT REQUIRED            6 OUTER ITERATIONS 
       AND A TOTAL OF         11 INNER ITERATIONS.
    ------------------------------------------------

 NO OUTPUT CONTROL FOR STRESS PERIOD   32   TIME STEP    9
 
 SOLVING FOR HEAD 
                                                   Max.-Head-Change                         Max.-Flux-Residual
  Residual-Control   Outer-Iter.   Inner-Iter.     Column Row Layer    Maximum-Head-Change  Column Row Layer    Maximum-Flux-Residual          L2-NORM 
          0                 1           2             5    8     1       0.7240454142E-01       5    8    1         0.3972428421E+01      0.8436741162E+01
          0                 2           2             5    8     1      -0.8562565512E-02       5    8    1        -0.4809053425E+00      0.1033003101E+01
          0                 3           2             4    7     1      -0.6581987360E-01       4    7    1        -0.3532969533E+01      0.8671664926E+01
          0                 4           2             4    7     1       0.6702374508E-01       4    7    1         0.3697795823E+01      0.9055884194E+01
          0                 5           2             4    7     1      -0.1543269446E-01       4    7    1        -0.8751751645E+00      0.2143722265E+01
          0                 6           2             4    7     1      -0.1226364487E-02       4    7    1        -0.6954415419E-01      0.1703389132E+00
          0                 7           2             4    7     1      -0.2428188162E-02       4    7    1        -0.1376968854E+00      0.3372858886E+00
          0                 8           1             4    7     1       0.3001005479E-04       5    8    1         0.1750864151E-02      0.4289372487E-02

    ------------------------------------------------
       NWT REQUIRED            8 OUTER ITERATIONS 
       AND A TOTAL OF         15 INNER ITERATIONS.
    ------------------------------------------------

 NO OUTPUT CONTROL FOR STRESS PERIOD   32   TIME STEP   10
 
 SOLVING FOR HEAD 
                                                   Max.-Head-Change                         Max.-Flux-Residual
  Residual-Control   Outer-Iter.   Inner-Iter.     Column Row Layer    Maximum-Head-Change  Column Row Layer    Maximum-Flux-Residual          L2-NORM 
          0                 1           2             5    8     1       0.6925109385E-01       5    8    1         0.3795888008E+01      0.8136969223E+01
          0                 2           2             5    8     1      -0.9574039958E-01       5    8    1        -0.5279887508E+01      0.1271948930E+02
          0                 3           2             4    7     1      -0.5595320701E+00       4    7    1        -0.3003065207E+02      0.7353456561E+02
          0                 4           2             4    7     1       0.3810565393E-01       4    7    1         0.2102362812E+01      0.5148581685E+01
          0                 5           2             4    7     1      -0.1516627609E-02       4    7    1        -0.8600899433E-01      0.2106642957E+00
          0                 6           1             4    7     1       0.1871454619E-04       4    7    1         0.1090823715E-02      0.2672301732E-02

    ------------------------------------------------
       NWT REQUIRED            6 OUTER ITERATIONS 
       AND A TOTAL OF         11 INNER ITERATIONS.
    ------------------------------------------------

 NO OUTPUT CONTROL FOR STRESS PERIOD   32   TIME STEP   11
 
 SOLVING FOR HEAD 
                                                   Max.-Head-Change                         Max.-Flux-Residual
  Residual-Control   Outer-Iter.   Inner-Iter.     Column Row Layer    Maximum-Head-Change  Column Row Layer    Maximum-Flux-Residual          L2-NORM 
          0                 1           2             5    8     1       0.8470270560E-01       5    8    1         0.4646128920E+01      0.9962065878E+01
          0                 2           2             5    8     1      -0.9998852694E-02       5    8    1        -0.5614890267E+00      0.1210673385E+01
          0                 3           2             4    7     1      -0.6449299319E-01       4    7    1        -0.3461777392E+01      0.8492792439E+01
          0                 4           2             4    7     1       0.6553442362E-01       4    7    1         0.3615598180E+01      0.8854246096E+01
          0                 5           2             4    7     1      -0.6624748509E-03       4    7    1        -0.3757298961E-01      0.9258617776E-01
          0                 6           2             4    7     1      -0.1618052019E-01       5    6    1        -0.9175608120E+00      0.2247555550E+01
          0                 7           2             4    7     1       0.1998168024E-03       5    8    1         0.1165778684E-01      0.2855973296E-01
          0                 8           1             4    7     1       0.2934990277E-05       5    8    1         0.1712325650E-03      0.4194934752E-03

    ------------------------------------------------
       NWT REQUIRED            8 OUTER ITERATIONS 
       AND A TOTAL OF         15 INNER ITERATIONS.
    ------------------------------------------------

 NO OUTPUT CONTROL FOR STRESS PERIOD   32   TIME STEP   12
 
 SOLVING FOR HEAD 
                                                   Max.-Head-Change                         Max.-Flux-Residual
  Residual-Control   Outer-Iter.   Inner-Iter.     Column Row Layer    Maximum-Head-Change  Column Row Layer    Maximum-Flux-Residual          L2-NORM 
          0                 1           2             5    8     1       0.8086634273E-01       5    8    1         0.4431595502E+01      0.9591967917E+01
          0                 2           2             5    8     1      -0.9679694806E-01       5    8    1        -0.5339409148E+01      0.1283212400E+02
          0                 3           2             4    7     1      -0.5710752059E+00       4    7    1        -0.3064992472E+02      0.7504776955E+02
          0                 4           2             4    7     1       0.3889180459E-01       4    7    1         0.2145718038E+01      0.5254535653E+01
          0                 5           2             4    7     1      -0.1547917055E-02       4    7    1        -0.8778270528E-01      0.2149997587E+00
          0                 6           1             4    7     1       0.1910064407E-04       4    7    1         0.1113319200E-02      0.2727300799E-02

    ------------------------------------------------
       NWT REQUIRED            6 OUTER ITERATIONS 
       AND A TOTAL OF         11 INNER ITERATIONS.
    ------------------------------------------------

 NO OUTPUT CONTROL FOR STRESS PERIOD   32   TIME STEP   13
 
 SOLVING FOR HEAD 
                                                   Max.-Head-Change                         Max.-Flux-Residual
  Residual-Control   Outer-Iter.   Inner-Iter.     Column Row Layer    Maximum-Head-Change  Column Row Layer    Maximum-Flux-Residual          L2-NORM 
          0                 1           2             5    8     1       0.9607244872E-01       5    8    1         0.5268017556E+01      0.1139623180E+02
          0                 2           2             5    8     1      -0.1099463662E-01       5    8    1        -0.6176109346E+00      0.1339339962E+01
          0                 3           2             4    7     1      -0.6407994006E-01       4    7    1        -0.3439619790E+01      0.8434767823E+01
          0                 4           2             4    7     1       0.6536112744E-01       4    7    1         0.3606003941E+01      0.8830507844E+01
          0                 5           2             4    7     1      -0.1537719895E-01       4    7    1        -0.8720110998E+00      0.2136057788E+01
          0                 6           1             4    7     1       0.1935116768E-04       5    8    1         0.1137453765E-02      0.2918640234E-02

    ------------------------------------------------
       NWT REQUIRED            6 OUTER ITERATIONS 
       AND A TOTAL OF         11 INNER ITERATIONS.
    ------------------------------------------------

 NO OUTPUT CONTROL FOR STRESS PERIOD   32   TIME STEP   14
 
 SOLVING FOR HEAD 
                                                   Max.-Head-Change                         Max.-Flux-Residual
  Residual-Control   Outer-Iter.   Inner-Iter.     Column Row Layer    Maximum-Head-Change  Column Row Layer    Maximum-Flux-Residual          L2-NORM 
          0                 1           2             5    8     1       0.9162805395E-01       5    8    1         0.5019692206E+01      0.1096180747E+02
          0                 2           2             5    8     1      -0.9726595157E-01       5    8    1        -0.5366391883E+01      0.1286991922E+02
          0                 3           2             4    7     1      -0.5426856733E+00       4    7    1        -0.2912599825E+02      0.7131181151E+02
          0                 4           2             4    7     1       0.3695841540E-01       4    7    1         0.2039034047E+01      0.4992963015E+01
          0                 5           2             4    7     1      -0.1470966603E-02       4    7    1        -0.8341818143E-01      0.2042971038E+00
          0                 6           1             4    7     1       0.1815110892E-04       4    7    1         0.1057965580E-02      0.2591539097E-02

    ------------------------------------------------
       NWT REQUIRED            6 OUTER ITERATIONS 
       AND A TOTAL OF         11 INNER ITERATIONS.
    ------------------------------------------------

 NO OUTPUT CONTROL FOR STRESS PERIOD   32   TIME STEP   15
 
 SOLVING FOR HEAD 
                                                   Max.-Head-Change                         Max.-Flux-Residual
  Residual-Control   Outer-Iter.   Inner-Iter.     Column Row Layer    Maximum-Head-Change  Column Row Layer    Maximum-Flux-Residual          L2-NORM 
          0                 1           2             5    8     1       0.1054771536E+00       5    8    1         0.5781032180E+01      0.1261585642E+02
          0                 2           2             5    8     1      -0.1204631862E-01       5    8    1        -0.6764468142E+00      0.1465884929E+01
          0                 3           2             4    7     1      -0.6530950307E-01       4    7    1        -0.3505604237E+01      0.8595006239E+01
          0                 4           2             4    7     1       0.6680293336E-01       4    7    1         0.3685511864E+01      0.9025095477E+01
          0                 5           2             4    7     1      -0.1622181279E-01       4    7    1        -0.9198977475E+00      0.2253235984E+01
          0                 6           2             4    7     1      -0.1467522709E-02       4    7    1        -0.8321724521E-01      0.2038302484E+00
          0                 7           1             4    7     1       0.1812289030E-04       5    8    1         0.1057481395E-02      0.2590973869E-02

    ------------------------------------------------
       NWT REQUIRED            7 OUTER ITERATIONS 
       AND A TOTAL OF         13 INNER ITERATIONS.
    ------------------------------------------------

 NO OUTPUT CONTROL FOR STRESS PERIOD   32   TIME STEP   16
 
 SOLVING FOR HEAD 
                                                   Max.-Head-Change                         Max.-Flux-Residual
  Residual-Control   Outer-Iter.   Inner-Iter.     Column Row Layer    Maximum-Head-Change  Column Row Layer    Maximum-Flux-Residual          L2-NORM 
          0                 1           2             5    8     1       0.1006649198E+00       5    8    1         0.5512275733E+01      0.1214619712E+02
          0                 2           2             5    8     1      -0.9873520104E-01       5    8    1        -0.5448130602E+01      0.1305449149E+02
          0                 3           2             4    7     1      -0.5716769115E+00       4    7    1        -0.3068163606E+02      0.7512014065E+02
          0                 4           2             4    7     1       0.3893277804E-01       4    7    1         0.2147938266E+01      0.5259604653E+01
          0                 5           2             4    7     1      -0.1549547843E-02       4    7    1        -0.8787355667E-01      0.2152073971E+00
          0                 6           1             4    7     1       0.1912076761E-04       4    7    1         0.1114471685E-02      0.2729939127E-02

    ------------------------------------------------
       NWT REQUIRED            6 OUTER ITERATIONS 
       AND A TOTAL OF         11 INNER ITERATIONS.
    ------------------------------------------------

 NO OUTPUT CONTROL FOR STRESS PERIOD   32   TIME STEP   17
 
 SOLVING FOR HEAD 
                                                   Max.-Head-Change                         Max.-Flux-Residual
  Residual-Control   Outer-Iter.   Inner-Iter.     Column Row Layer    Maximum-Head-Change  Column Row Layer    Maximum-Flux-Residual          L2-NORM 
          0                 1           2             5    8     1       0.1149558665E+00       5    8    1         0.6297873142E+01      0.1385052348E+02
          0                 2           2             5    8     1      -0.1284294042E-01       5    8    1        -0.7212261794E+00      0.1574776424E+01
          0                 3           2             4    7     1      -0.6394461256E-01       4    7    1        -0.3432342860E+01      0.8412337758E+01
          0                 4           2             4    7     1       0.6532627288E-01       4    7    1         0.3604007627E+01      0.8825288702E+01
          0                 5           2             4    7     1      -0.9611696504E-03       4    7    1        -0.5451007948E-01      0.1353573071E+00
          0                 6           2             4    7     1      -0.1423820701E-01       5    6    1        -0.8073910906E+00      0.1977695821E+01
          0                 7           2             4    7     1      -0.1446871422E-02       4    7    1        -0.8204453537E-01      0.2009569500E+00
          0                 8           1             4    7     1       0.1788193838E-04       5    8    1         0.1043379427E-02      0.2556413175E-02

    ------------------------------------------------
       NWT REQUIRED            8 OUTER ITERATIONS 
       AND A TOTAL OF         15 INNER ITERATIONS.
    ------------------------------------------------

 NO OUTPUT CONTROL FOR STRESS PERIOD   32   TIME STEP   18
 
 SOLVING FOR HEAD 
                                                   Max.-Head-Change                         Max.-Flux-Residual
  Residual-Control   Outer-Iter.   Inner-Iter.     Column Row Layer    Maximum-Head-Change  Column Row Layer    Maximum-Flux-Residual          L2-NORM 
          0                 1           2             5    8     1       0.1096742542E+00       5    8    1         0.6003086881E+01      0.1333245196E+02
          0                 2           2             5    8     1      -0.9960327602E-01       5    8    1        -0.5496739592E+01      0.1315848877E+02
          0                 3           2             4    7     1      -0.5693083896E+00       4    7    1        -0.3055419990E+02      0.7480595072E+02
          0                 4           2             4    7     1       0.3877141262E-01       4    7    1         0.2139013649E+01      0.5237598833E+01
          0                 5           2             4    7     1      -0.1543125371E-02       4    7    1        -0.8750845217E-01      0.2143070554E+00
          0                 6           1             4    7     1       0.1904151705E-04       4    7    1         0.1109841301E-02      0.2718517041E-02

    ------------------------------------------------
       NWT REQUIRED            6 OUTER ITERATIONS 
       AND A TOTAL OF         11 INNER ITERATIONS.
    ------------------------------------------------

 NO OUTPUT CONTROL FOR STRESS PERIOD   32   TIME STEP   19
 
 SOLVING FOR HEAD 
                                                   Max.-Head-Change                         Max.-Flux-Residual
  Residual-Control   Outer-Iter.   Inner-Iter.     Column Row Layer    Maximum-Head-Change  Column Row Layer    Maximum-Flux-Residual          L2-NORM 
          0                 1           2             5    8     1       0.1234883331E+00       5    8    1         0.6762260833E+01      0.1498244103E+02
          0                 2           2             5    8     1      -0.1363334489E-01       5    8    1        -0.7654855426E+00      0.1683697926E+01
          0                 3           2             4    7     1      -0.6411348028E-01       4    7    1        -0.3441387351E+01      0.8432901603E+01
          0                 4           2             4    7     1       0.6543105285E-01       4    7    1         0.3609748504E+01      0.8839227601E+01
          0                 5           2             4    7     1      -0.1581448119E-01       4    7    1        -0.8967789789E+00      0.2196687916E+01
          0                 6           1             4    7     1      -0.9745437851E-04       4    7    1        -0.5525296257E-02      0.1355442435E-01

    ------------------------------------------------
       NWT REQUIRED            6 OUTER ITERATIONS 
       AND A TOTAL OF         11 INNER ITERATIONS.
    ------------------------------------------------

 NO OUTPUT CONTROL FOR STRESS PERIOD   32   TIME STEP   20
 
 SOLVING FOR HEAD 
                                                   Max.-Head-Change                         Max.-Flux-Residual
  Residual-Control   Outer-Iter.   Inner-Iter.     Column Row Layer    Maximum-Head-Change  Column Row Layer    Maximum-Flux-Residual          L2-NORM 
          0                 1           2             5    8     1       0.1178072126E+00       5    8    1         0.6445350300E+01      0.1442306830E+02
          0                 2           2             5    8     1      -0.1002286659E+00       5    8    1        -0.5531824935E+01      0.1323444794E+02
          0                 3           2             4    7     1      -0.5747135603E+00       4    7    1        -0.3084394535E+02      0.7551414931E+02
          0                 4           2             4    7     1       0.3913950133E-01       4    7    1         0.2159296975E+01      0.5287182389E+01
          0                 5           2             4    7     1      -0.1557775609E-02       4    7    1        -0.8833826975E-01      0.2163359540E+00
          0                 6           1             4    7     1       0.1922229454E-04       4    7    1         0.1120365700E-02      0.2744255071E-02

    ------------------------------------------------
       NWT REQUIRED            6 OUTER ITERATIONS 
       AND A TOTAL OF         11 INNER ITERATIONS.
    ------------------------------------------------

 NO OUTPUT CONTROL FOR STRESS PERIOD   32   TIME STEP   21
 
 SOLVING FOR HEAD 
                                                   Max.-Head-Change                         Max.-Flux-Residual
  Residual-Control   Outer-Iter.   Inner-Iter.     Column Row Layer    Maximum-Head-Change  Column Row Layer    Maximum-Flux-Residual          L2-NORM 
          0                 1           2             5    8     1       0.1314174687E+00       5    8    1         0.7193210643E+01      0.1604856408E+02
          0                 2           2             5    8     1      -0.1449426839E-01       5    8    1        -0.8135147168E+00      0.1801273144E+01
          0                 3           2             4    7     1      -0.6360739907E-01       4    7    1        -0.3414202498E+01      0.8364834221E+01
          0                 4           2             4    7     1       0.6518728933E-01       4    7    1         0.3596259520E+01      0.8806092327E+01
          0                 5           2             4    7     1      -0.9558128938E-03       4    7    1        -0.5420519161E-01      0.1344463959E+00
          0                 6           2             4    7     1      -0.2338004266E-03       5    6    1        -0.1325802914E-01      0.3280284771E-01
          0                 7           2             4    7     1      -0.1434549900E-01       4    7    1        -0.8134478488E+00      0.1992531933E+01
          0                 8           2             4    7     1      -0.8649794175E-02       4    7    1        -0.4904725833E+00      0.1201395655E+01
          0                 9           2             4    7     1       0.1069869132E-03       5    8    1         0.6241541362E-02      0.1529102454E-01
          0                10           1             4    7     1       0.1569391669E-05       5    8    1         0.9155626367E-04      0.2243019643E-03

    ------------------------------------------------
       NWT REQUIRED           10 OUTER ITERATIONS 
       AND A TOTAL OF         19 INNER ITERATIONS.
    ------------------------------------------------

 NO OUTPUT CONTROL FOR STRESS PERIOD   32   TIME STEP   22
 
 SOLVING FOR HEAD 
                                                   Max.-Head-Change                         Max.-Flux-Residual
  Residual-Control   Outer-Iter.   Inner-Iter.     Column Row Layer    Maximum-Head-Change  Column Row Layer    Maximum-Flux-Residual          L2-NORM 
          0                 1           2             5    8     1       0.1256422729E+00       5    8    1         0.6871057579E+01      0.1548252954E+02
          0                 2           2             5    8     1      -0.1015137791E+00       5    8    1        -0.5603171251E+01      0.1340104674E+02
          0                 3           2             4    7     1      -0.5077749557E+00       4    7    1        -0.2725120736E+02      0.6671248017E+02
          0                 4           2             4    7     1       0.3458105940E-01       4    7    1         0.1907795613E+01      0.4670962020E+01
          0                 5           2             4    7     1      -0.1376345979E-02       4    7    1        -0.7804914291E-01      0.1911221144E+00
          0                 6           1             4    7     1       0.1698353096E-04       4    7    1         0.9898723295E-03      0.2424417997E-02

    ------------------------------------------------
       NWT REQUIRED            6 OUTER ITERATIONS 
       AND A TOTAL OF         11 INNER ITERATIONS.
    ------------------------------------------------

 NO OUTPUT CONTROL FOR STRESS PERIOD   32   TIME STEP   23
 
 SOLVING FOR HEAD 
                                                   Max.-Head-Change                         Max.-Flux-Residual
  Residual-Control   Outer-Iter.   Inner-Iter.     Column Row Layer    Maximum-Head-Change  Column Row Layer    Maximum-Flux-Residual          L2-NORM 
          0                 1           2             5    8     1       0.1370006869E+00       5    8    1         0.7494625465E+01      0.1685012899E+02
          0                 2           2             5    8     1      -0.1489309971E-01       5    8    1        -0.8355832122E+00      0.1865509529E+01
          0                 3           2             4    7     1      -0.6751006816E-01       4    7    1        -0.3623605256E+01      0.8879863548E+01
          0                 4           2             4    7     1       0.6876088291E-01       4    7    1         0.3793361402E+01      0.9288950040E+01
          0                 5           2             4    7     1      -0.2864107239E-02       4    7    1        -0.1624136780E+00      0.3977928202E+00
          0                 6           2             4    7     1      -0.1650278026E-02       4    8    1        -0.9357724681E-01      0.2292162610E+00
          0                 7           2             4    7     1      -0.1611286718E-02       4    7    1        -0.9136531426E-01      0.2237969777E+00
          0                 8           2             4    7     1      -0.1617166653E-01       4    7    1        -0.9169790639E+00      0.2246129423E+01
          0                 9           2             4    7     1       0.2000221432E-03       5    8    1         0.1166875430E-01      0.2858654807E-01
          0                10           1             4    7     1       0.2934125801E-05       5    8    1         0.1711672830E-03      0.4193324371E-03

    ------------------------------------------------
       NWT REQUIRED           10 OUTER ITERATIONS 
       AND A TOTAL OF         19 INNER ITERATIONS.
    ------------------------------------------------

 NO OUTPUT CONTROL FOR STRESS PERIOD   32   TIME STEP   24
 
 SOLVING FOR HEAD 
                                                   Max.-Head-Change                         Max.-Flux-Residual
  Residual-Control   Outer-Iter.   Inner-Iter.     Column Row Layer    Maximum-Head-Change  Column Row Layer    Maximum-Flux-Residual          L2-NORM 
          0                 1           2             5    8     1       0.1309890699E+00       5    8    1         0.7158248575E+01      0.1625606626E+02
          0                 2           2             5    8     1      -0.1018162208E+00       5    8    1        -0.5619940193E+01      0.1344592471E+02
          0                 3           2             4    7     1      -0.5468829362E+00       4    7    1        -0.2934966534E+02      0.7185249806E+02
          0                 4           2             4    7     1       0.3724431374E-01       4    7    1         0.2054696203E+01      0.5030830718E+01
          0                 5           2             4    7     1      -0.1482345603E-02       4    7    1        -0.8405897628E-01      0.2058469166E+00
          0                 6           1             4    7     1       0.1829152071E-04       4    7    1         0.1066093067E-02      0.2611203616E-02

    ------------------------------------------------
       NWT REQUIRED            6 OUTER ITERATIONS 
       AND A TOTAL OF         11 INNER ITERATIONS.
    ------------------------------------------------

 NO OUTPUT CONTROL FOR STRESS PERIOD   32   TIME STEP   25
 
 SOLVING FOR HEAD 
                                                   Max.-Head-Change                         Max.-Flux-Residual
  Residual-Control   Outer-Iter.   Inner-Iter.     Column Row Layer    Maximum-Head-Change  Column Row Layer    Maximum-Flux-Residual          L2-NORM 
          0                 1           2             5    8     1       0.1433084680E+00       5    8    1         0.7834717174E+01      0.1772369863E+02
          0                 2           2             5    8     1      -0.1549312640E-01       5    8    1        -0.8689771651E+00      0.1951622549E+01
          0                 3           2             4    7     1      -0.6533231694E-01       4    7    1        -0.3506694281E+01      0.8591668726E+01
          0                 4           2             4    7     1       0.6691128949E-01       4    7    1         0.3691282032E+01      0.9038799067E+01
          0                 5           2             4    7     1      -0.1075811335E-02       4    7    1        -0.6100843133E-01      0.1496118936E+00
          0                 6           2             4    7     1      -0.1022420274E-02       5    6    1        -0.5797504897E-01      0.1420088246E+00
          0                 7           2             4    7     1      -0.1630370022E-02       4    7    1        -0.9244634980E-01      0.2264454947E+00
          0                 8           2             4    7     1      -0.1698327514E-02       4    7    1        -0.9629873566E-01      0.2358813876E+00
          0                 9           2             4    7     1      -0.1606691355E-01       4    7    1        -0.9110195166E+00      0.2231531500E+01
          0                10           2             4    7     1       0.1988828168E-03       5    8    1         0.1160203073E-01      0.2842306363E-01
          0                11           1             4    7     1       0.2915483627E-05       5    8    1         0.1700759792E-03      0.4166580919E-03

    ------------------------------------------------
       NWT REQUIRED           11 OUTER ITERATIONS 
       AND A TOTAL OF         21 INNER ITERATIONS.
    ------------------------------------------------

 NO OUTPUT CONTROL FOR STRESS PERIOD   32   TIME STEP   26
 
 SOLVING FOR HEAD 
                                                   Max.-Head-Change                         Max.-Flux-Residual
  Residual-Control   Outer-Iter.   Inner-Iter.     Column Row Layer    Maximum-Head-Change  Column Row Layer    Maximum-Flux-Residual          L2-NORM 
          0                 1           2             5    8     1       0.1370123681E+00       5    8    1         0.7484055555E+01      0.1710030749E+02
          0                 2           2             5    8     1      -0.1024232496E+00       5    8    1        -0.5653665074E+01      0.1352829957E+02
          0                 3           2             4    7     1      -0.5407866227E+00       4    7    1        -0.2902215621E+02      0.7104988633E+02
          0                 4           2             4    7     1       0.3682908622E-01       4    7    1         0.2031765660E+01      0.4974628637E+01
          0                 5           2             4    7     1      -0.1465819216E-02       4    7    1        -0.8312087510E-01      0.2035473440E+00
          0                 6           1             4    7     1       0.1808759211E-04       4    7    1         0.1054195528E-02      0.2582038013E-02

    ------------------------------------------------
       NWT REQUIRED            6 OUTER ITERATIONS 
       AND A TOTAL OF         11 INNER ITERATIONS.
    ------------------------------------------------

 NO OUTPUT CONTROL FOR STRESS PERIOD   32   TIME STEP   27
 
 SOLVING FOR HEAD 
                                                   Max.-Head-Change                         Max.-Flux-Residual
  Residual-Control   Outer-Iter.   Inner-Iter.     Column Row Layer    Maximum-Head-Change  Column Row Layer    Maximum-Flux-Residual          L2-NORM 
          0                 1           2             5    8     1       0.1489232259E+00       5    8    1         0.8138004991E+01      0.1851783849E+02
          0                 2           2             5    8     1      -0.1625630849E-01       5    8    1        -0.9112849896E+00      0.2057078351E+01
          0                 3           2             4    7     1      -0.6516123865E-01       4    7    1        -0.3497371805E+01      0.8569358704E+01
          0                 4           2             4    7     1       0.6683415329E-01       4    7    1         0.3686912093E+01      0.9028109403E+01
          0                 5           2             4    7     1      -0.1648127089E-01       4    7    1        -0.9345285477E+00      0.2289056682E+01
          0                 6           2             4    7     1      -0.1536605745E-02       4    7    1        -0.8712699029E-01      0.2134070730E+00
          0                 7           1             4    7     1       0.1897601742E-04       5    8    1         0.1107161220E-02      0.2712679292E-02

    ------------------------------------------------
       NWT REQUIRED            7 OUTER ITERATIONS 
       AND A TOTAL OF         13 INNER ITERATIONS.
    ------------------------------------------------

 NO OUTPUT CONTROL FOR STRESS PERIOD   32   TIME STEP   28
 
 SOLVING FOR HEAD 
                                                   Max.-Head-Change                         Max.-Flux-Residual
  Residual-Control   Outer-Iter.   Inner-Iter.     Column Row Layer    Maximum-Head-Change  Column Row Layer    Maximum-Flux-Residual          L2-NORM 
          0                 1           2             5    8     1       0.1423227737E+00       5    8    1         0.7770515396E+01      0.1786235722E+02
          0                 2           2             5    8     1      -0.1028034134E+00       5    8    1        -0.5674783543E+01      0.1358300427E+02
          0                 3           2             4    7     1      -0.5687824904E+00       4    7    1        -0.3052361734E+02      0.7472761857E+02
          0                 4           2             4    7     1       0.3873559671E-01       4    7    1         0.2136873555E+01      0.5232117076E+01
          0                 5           2             4    7     1      -0.1541699879E-02       4    7    1        -0.8742093638E-01      0.2140830524E+00
          0                 6           1             4    7     1       0.1902392709E-04       4    7    1         0.1108731827E-02      0.2715681162E-02

    ------------------------------------------------
       NWT REQUIRED            6 OUTER ITERATIONS 
       AND A TOTAL OF         11 INNER ITERATIONS.
    ------------------------------------------------

 NO OUTPUT CONTROL FOR STRESS PERIOD   32   TIME STEP   29
 
 SOLVING FOR HEAD 
                                                   Max.-Head-Change                         Max.-Flux-Residual
  Residual-Control   Outer-Iter.   Inner-Iter.     Column Row Layer    Maximum-Head-Change  Column Row Layer    Maximum-Flux-Residual          L2-NORM 
          0                 1           2             5    8     1       0.1548471139E+00       5    8    1         0.8458282628E+01      0.1934418923E+02
          0                 2           2             5    8     1      -0.1667775554E-01       5    8    1        -0.9347586007E+00      0.2122172264E+01
          0                 3           2             4    7     1      -0.6395815741E-01       4    7    1        -0.3432778928E+01      0.8409415444E+01
          0                 4           2             4    7     1       0.6543892871E-01       4    7    1         0.3609902890E+01      0.8839414553E+01
          0                 5           2             4    7     1      -0.1590950425E-01       4    7    1        -0.9020973048E+00      0.2209703669E+01
          0                 6           2             4    7     1      -0.1246025865E-03       4    7    1        -0.7064184715E-02      0.1731726948E-01
          0                 7           1             4    7     1       0.1538756591E-05       5    8    1         0.8993613096E-04      0.2210230493E-03

    ------------------------------------------------
       NWT REQUIRED            7 OUTER ITERATIONS 
       AND A TOTAL OF         13 INNER ITERATIONS.
    ------------------------------------------------

 NO OUTPUT CONTROL FOR STRESS PERIOD   32   TIME STEP   30



 STREAM LISTING     PERIOD     32   STEP       30

 LAYER ROW COL. STREAM  RCH.  FLOW INTO     FLOW TO   FLOW OUT OF   OVRLND.     DIRECT     STREAM       STREAM     STREAM     STREAM   STREAMBED  STREAMBED
                SEG.NO.  NO.  STRM. RCH.    AQUIFER    STRM. RCH.    RUNOFF     PRECIP       ET          HEAD       DEPTH      WIDTH   CONDCTNC.   GRADIENT

   1    1    1     1     1    2.8124E+01  2.5914E-01   2.7865E+01  0.000E+00  0.000E+00  0.000E+00  1.09427E+03  1.223E+00  1.364E+01  6.136E-02  1.408E+00
   1    2    2     1     2    2.7865E+01  4.0087E-01   2.7464E+01  0.000E+00  0.000E+00  0.000E+00  1.08928E+03  1.218E+00  1.358E+01  9.503E-02  1.406E+00
   1    3    3     1     3    2.7464E+01  3.4142E-01   2.7123E+01  0.000E+00  0.000E+00  0.000E+00  1.08363E+03  1.213E+00  1.351E+01  8.103E-02  1.404E+00
   1    3    4     1     4    2.7123E+01  3.1402E-01   2.6809E+01  0.000E+00  0.000E+00  0.000E+00  1.07862E+03  1.209E+00  1.344E+01  7.461E-02  1.403E+00
   1    4    5     2     1    2.4809E+01  3.2738E-01   2.4481E+01  0.000E+00  0.000E+00  0.000E+00  1.07313E+03  1.197E+00  1.200E+01  7.800E-02  1.399E+00
   1    5    6     2     2    2.4481E+01  2.5133E-01   2.4230E+01  0.000E+00  0.000E+00  0.000E+00  1.06770E+03  1.189E+00  1.200E+01  6.000E-02  1.396E+00
   1    6    6     2     3    2.4230E+01  2.5089E-01   2.3979E+01  0.000E+00  0.000E+00  0.000E+00  1.06297E+03  1.181E+00  1.200E+01  6.000E-02  1.394E+00
   1    7    6     2     4    2.3979E+01  2.5044E-01   2.3729E+01  0.000E+00  0.000E+00  0.000E+00  1.05825E+03  1.174E+00  1.200E+01  6.000E-02  1.391E+00
   1    8    6     2     5    2.3729E+01  2.5000E-01   2.3479E+01  0.000E+00  0.000E+00  0.000E+00  1.05353E+03  1.167E+00  1.200E+01  6.000E-02  1.389E+00
   1    3    5     3     1    2.0000E+00  2.8252E-01   1.7175E+00  0.000E+00  0.000E+00  0.000E+00  1.07555E+03  1.909E+00  9.636E+00  7.227E-02  1.955E+00
   1    3    6     3     2    1.7175E+00  2.4905E-01   1.4684E+00  0.000E+00  0.000E+00  0.000E+00  1.07264E+03  1.727E+00  8.909E+00  6.682E-02  1.864E+00
   1    3    7     3     3    1.4684E+00  1.9718E-01   1.2712E+00  0.000E+00  0.000E+00  0.000E+00  1.06987E+03  1.555E+00  8.218E+00  5.547E-02  1.777E+00
   1    4    8     3     4    1.2712E+00  2.2567E-01   1.0456E+00  0.000E+00  0.000E+00  0.000E+00  1.06682E+03  1.364E+00  7.455E+00  6.709E-02  1.682E+00
   1    5    8     3     5    1.0456E+00  1.5790E-01   8.8768E-01  0.000E+00  0.000E+00  0.000E+00  1.06362E+03  1.164E+00  6.655E+00  4.991E-02  1.582E+00
   1    6    8     3     6    8.8768E-01  5.5980E-02   8.3170E-01  0.000E+00  0.000E+00  0.000E+00  1.06158E+03  1.036E+00  6.145E+00  1.844E-02  1.518E+00
   1    5   10     4     1    1.0000E+01  9.0919E-02   9.9091E+00  0.000E+00  0.000E+00  0.000E+00  1.07836E+03  6.368E-01  1.000E+01  2.500E-02  1.212E+00
   1    5    9     4     2    9.9091E+00  1.8158E-01   9.7275E+00  0.000E+00  0.000E+00  0.000E+00  1.07154E+03  6.315E-01  1.000E+01  5.000E-02  1.211E+00
   1    6    8     4     3    9.7275E+00  1.2689E-01   9.6006E+00  0.000E+00  0.000E+00  0.000E+00  1.06381E+03  6.256E-01  1.000E+01  3.500E-02  1.209E+00
   1    6    8     5     1    1.0432E+01  2.2686E-01   1.0205E+01  0.000E+00  0.000E+00  0.000E+00  1.05868E+03  6.790E-01  1.542E+01  6.166E-02  1.226E+00
   1    7    7     5     2    1.0205E+01  2.7894E-01   9.9265E+00  0.000E+00  0.000E+00  0.000E+00  1.05417E+03  6.732E-01  1.519E+01  7.594E-02  1.224E+00
   1    8    7     5     3    9.9265E+00  1.9221E-01   9.7343E+00  0.000E+00  0.000E+00  0.000E+00  1.04992E+03  6.676E-01  1.497E+01  5.241E-02  1.223E+00
   1    8    6     5     4    9.7343E+00  1.3577E-01   9.5985E+00  0.000E+00  0.000E+00  0.000E+00  1.04691E+03  6.637E-01  1.482E+01  3.706E-02  1.221E+00
   1    9    6     6     1    9.5985E+00  2.2097E-01   9.3776E+00  0.000E+00  0.000E+00  0.000E+00  1.04341E+03  6.828E-01  1.200E+01  6.000E-02  1.228E+00
   1   10    7     6     2    9.3776E+00  2.2039E-01   9.1572E+00  0.000E+00  0.000E+00  0.000E+00  1.03885E+03  6.732E-01  1.200E+01  6.000E-02  1.224E+00
   1   11    7     6     3    9.1572E+00  2.1981E-01   8.9374E+00  0.000E+00  0.000E+00  0.000E+00  1.03430E+03  6.636E-01  1.200E+01  6.000E-02  1.221E+00
   1   12    7     6     4    8.9374E+00  2.1923E-01   8.7181E+00  0.000E+00  0.000E+00  0.000E+00  1.02974E+03  6.539E-01  1.200E+01  6.000E-02  1.218E+00
   1   13    7     6     5    8.7181E+00  1.7226E-04   8.7180E+00  0.000E+00  0.000E+00  0.000E+00  1.02656E+03  6.490E-01  1.200E+01  2.400E-02  2.392E-03
   1   14    9     7     1    1.5000E+02  1.3902E+00   1.4861E+02  0.000E+00  0.000E+00  0.000E+00  1.03987E+03  2.288E+00  5.529E+01  5.593E-01  8.285E-01
   1   13    8     7     2    1.4861E+02  2.0047E+00   1.4661E+02  0.000E+00  0.000E+00  0.000E+00  1.03478E+03  2.279E+00  5.525E+01  6.147E-01  1.087E+00
   1   13    7     7     3    1.4661E+02  1.7516E+00   1.4485E+02  0.000E+00  0.000E+00  0.000E+00  1.02969E+03  2.269E+00  5.521E+01  5.584E-01  1.046E+00
   1   13    6     8     1    1.5357E+02  1.1026E+00   1.5247E+02  0.000E+00  0.000E+00  0.000E+00  1.02471E+03  2.838E+00  4.115E+01  4.193E-01  8.765E-01
   1   13    5     8     2    1.5247E+02  3.5566E-01   1.5211E+02  0.000E+00  0.000E+00  0.000E+00  1.01846E+03  2.833E+00  4.108E+01  4.186E-01  2.832E-01
   1   13    4     8     3    1.5211E+02 -1.8015E+00   1.5391E+02  0.000E+00  0.000E+00  0.000E+00  1.01221E+03  2.838E+00  4.115E+01  4.193E+00 -1.432E-01
   1   13    3     8     4    1.5391E+02 -3.3309E+00   1.5725E+02  0.000E+00  0.000E+00  0.000E+00  1.00598E+03  2.856E+00  4.141E+01  4.220E+00 -2.631E-01
   1   13    2     8     5    1.5725E+02 -2.5141E+00   1.5976E+02  0.000E+00  0.000E+00  0.000E+00  9.99751E+02  2.876E+00  4.170E+01  4.249E+00 -1.972E-01
   1   13    1     8     6    1.5976E+02 -1.9835E+00   1.6174E+02  0.000E+00  0.000E+00  0.000E+00  9.94766E+02  2.891E+00  4.192E+01  2.563E+00 -2.580E-01
   1    8    6     9     1    2.3479E+01  0.0000E+00   2.3479E+01  0.000E+00  0.000E+00  0.000E+00  1.08253E+03  3.782E+00  4.000E+00  0.000E+00  2.261E+00
   1    8    5     9     2    2.3479E+01  0.0000E+00   2.3479E+01  0.000E+00  0.000E+00  0.000E+00  1.08203E+03  3.782E+00  4.000E+00  0.000E+00  2.261E+00





UNSATURATED ZONE PACKAGE VOLUMETRIC BUDGET FOR  TIME STEP    30 STRESS PERIOD   32
  ------------------------------------------------------------------------------



     CUMULATIVE VOLUMES      L**3       RATES FOR THIS TIME STEP      L**3/T
     ------------------                 ------------------------

           IN:                                      IN:
           ---                                      ---
        INFILTRATION =  1523069181.2448          INFILTRATION =          30.0858

          OUT:                                     OUT:
          ----                                     ----
              UZF ET =  1112783618.7917                UZF ET =          60.8574
        UZF RECHARGE =       73224.0000          UZF RECHARGE =       0.0000E+00

            IN - OUT =   410212338.4532              IN - OUT =         -30.7716

          STORAGE:                                 STORAGE:
          --------                                 --------
      STORAGE CHANGE =   410212544.1759        STORAGE CHANGE =         -30.7716

 PERCENT DISCREPANCY IS DIFFERENCE BETWEEN IN-OUT MINUS CHANGE IN STORAGE
 DIVIDED BY THE AVERAGE OF IN AND OUT TIMES 100

 PERCENT DISCREPANCY =          -0.00     PERCENT DISCREPANCY =           0.00






1
  VOLUMETRIC BUDGET FOR AGRICULTURAL FIELDS AT  END OF TIME STEP   30, STRESS PERIOD  32
  ------------------------------------------------------------------------------

     CUMULATIVE VOLUMES      L**3       RATES FOR THIS TIME STEP      L**3/T
     ------------------                 ------------------------

           IN:                                      IN:
           ---                                      ---
               AG WELLS  =   938833792.0000                 AG WELLS  =           5.7592
      DIVERSION SEGMENTS =   515159872.0000        DIVERSION SEGMENTS =          23.4787
       IRRIGATION PONDS  =           0.0000         IRRIGATION PONDS  =           0.0000
           GW IRRIGATION =           0.0000             GW IRRIGATION =           0.0000
           SW IRRIGATION =           0.0000             SW IRRIGATION =           0.0000
        SYSTEM LOSSES GW =           0.0000          SYSTEM LOSSES GW =           0.0000
        SYSTEM LOSSES SW =           0.0000          SYSTEM LOSSES SW =           0.0000

                TOTAL IN =  1453993728.0000                  TOTAL IN =          29.2378

          OUT:                                     OUT:
          ----                                     ----
               AG WELLS  =           0.0000                 AG WELLS  =           0.0000
      DIVERSION SEGMENTS =           0.0000        DIVERSION SEGMENTS =           0.0000
       IRRIGATION PONDS  =           0.0000         IRRIGATION PONDS  =           0.0000
           GW IRRIGATION =   938833792.0000             GW IRRIGATION =           5.7592
           SW IRRIGATION =   515169920.0000             SW IRRIGATION =          23.4791
        SYSTEM LOSSES GW =           0.0000          SYSTEM LOSSES GW =           0.0000
        SYSTEM LOSSES SW =           0.0000          SYSTEM LOSSES SW =           0.0000

               TOTAL OUT =  1454003712.0000                 TOTAL OUT =          29.2383

                IN - OUT =       -9984.0000                  IN - OUT =      -4.6921E-04

     PERCENT DISCREPANCY =          -0.00         PERCENT DISCREPANCY =          -0.00



1
  VOLUMETRIC BUDGET FOR ENTIRE MODEL AT END OF TIME STEP   30, STRESS PERIOD  32
  ------------------------------------------------------------------------------

     CUMULATIVE VOLUMES      L**3       RATES FOR THIS TIME STEP      L**3/T
     ------------------                 ------------------------

           IN:                                      IN:
           ---                                      ---
             STORAGE     =  1356510336.0000               STORAGE     =          36.1826
       CONSTANT HEAD     =           0.0000         CONSTANT HEAD     =           0.0000
     HEAD DEP BOUNDS     =    23535960.0000       HEAD DEP BOUNDS     =           0.2895
      STREAM LEAKAGE     =   972637760.0000        STREAM LEAKAGE     =          12.5323
        UZF RECHARGE     =       73223.9531          UZF RECHARGE     =           0.0000
               GW ET     =           0.0000                 GW ET     =           0.0000
     SURFACE LEAKAGE     =           0.0000       SURFACE LEAKAGE     =           0.0000
           AG WELLS      =           0.0000             AG WELLS      =           0.0000

                TOTAL IN =  2352757248.0000                  TOTAL IN =          49.0043

          OUT:                                     OUT:
          ----                                     ----
             STORAGE     =   577181824.0000               STORAGE     =          33.3287
       CONSTANT HEAD     =           0.0000         CONSTANT HEAD     =           0.0000
     HEAD DEP BOUNDS     =    23495568.0000       HEAD DEP BOUNDS     =           0.2865
      STREAM LEAKAGE     =   813255936.0000        STREAM LEAKAGE     =           9.6299
        UZF RECHARGE     =           0.0000          UZF RECHARGE     =           0.0000
               GW ET     =           0.0000                 GW ET     =           0.0000
     SURFACE LEAKAGE     =           0.0000       SURFACE LEAKAGE     =           0.0000
           AG WELLS      =   938833792.0000             AG WELLS      =           5.7592

               TOTAL OUT =  2352766976.0000                 TOTAL OUT =          49.0043

                IN - OUT =       -9728.0000                  IN - OUT =       1.1444E-05

     PERCENT DISCREPANCY =          -0.00         PERCENT DISCREPANCY =           0.00






         TIME SUMMARY AT END OF TIME STEP   30 IN STRESS PERIOD   32
                    SECONDS     MINUTES      HOURS       DAYS        YEARS
                    -----------------------------------------------------------
   TIME STEP LENGTH  87667.      1461.1      24.352      1.0147     2.77799E-03
 STRESS PERIOD TIME 2.63000E+06  43833.      730.56      30.440     8.33397E-02
         TOTAL TIME 8.16164E+07 1.36027E+06  22671.      944.63      2.5863    
1
1
                            STRESS PERIOD NO.   33, LENGTH =   2630000.    
                            -----------------------------------------------

                              NUMBER OF TIME STEPS =    30

                               MULTIPLIER FOR DELT =     1.000

                            INITIAL TIME STEP SIZE =   87666.66    

 REUSING NON-PARAMETER GHB CELLS FROM LAST STRESS PERIOD

      2 GHB CELLS

 REUSING STREAM SEGMENT DATA FROM LAST STRESS PERIOD



            AREAL INFILTRATION RATE
 READING ON UNIT   19 WITH FORMAT: (FREE)              

            1           2           3           4           5           6           7           8           9          10
 ........................................................................................................................
   1   1.0000E-10  2.0000E-10   0.000       0.000       0.000       0.000       0.000       0.000       0.000       0.000    
   2   2.0000E-10  1.0000E-10  2.0000E-10   0.000       0.000      8.0000E-10  8.0000E-10  5.0000E-10   0.000       0.000    
   3    0.000      5.0000E-10  1.0000E-10  1.0000E-10  8.0000E-10  8.0000E-10  5.0000E-10  5.0000E-10   0.000       0.000    
   4   8.0000E-10  5.0000E-10  1.0000E-10  1.0000E-10  1.0000E-10  1.0000E-10  1.0000E-10  1.0000E-10  2.0000E-10   0.000    
   5   8.0000E-10  5.0000E-10  1.0000E-10  1.0000E-10  1.0000E-10  1.0000E-10  1.0000E-10  1.0000E-10  1.0000E-10  1.0000E-10
   6   8.0000E-10  5.0000E-10  5.0000E-10  2.0000E-10  2.0000E-10  1.0000E-10  1.0000E-10  1.0000E-10  1.0000E-10  5.0000E-10
   7   8.0000E-10  5.0000E-10  5.0000E-10  2.0000E-10  2.0000E-10  1.0000E-10  1.0000E-10  2.0000E-10  2.0000E-10   0.000    
   8    0.000      5.0000E-10  5.0000E-10  2.0000E-10  2.0000E-10  1.0000E-10  1.0000E-10  2.0000E-10  5.0000E-10   0.000    
   9    0.000      5.0000E-10  5.0000E-10  2.0000E-10  2.0000E-10  1.0000E-10  1.0000E-10  2.0000E-10  5.0000E-10   0.000    
  10    0.000      5.0000E-10  5.0000E-10  2.0000E-10  2.0000E-10  1.0000E-10  1.0000E-10  2.0000E-10  5.0000E-10  8.0000E-10
  11    0.000      1.0000E-10  1.0000E-10  1.0000E-10  1.0000E-10  1.0000E-10  1.0000E-10  2.0000E-10  5.0000E-10   0.000    
  12   1.0000E-10  1.0000E-10  1.0000E-10  1.0000E-10  1.0000E-10  1.0000E-10  1.0000E-10  1.0000E-10  2.0000E-10   0.000    
  13   1.0000E-10  1.0000E-10  2.0000E-10  2.0000E-10  2.0000E-10  2.0000E-10  2.0000E-10  1.0000E-10  1.0000E-10   0.000    
  14    0.000      2.0000E-10  5.0000E-10  5.0000E-10  5.0000E-10  5.0000E-10  5.0000E-10  2.0000E-10  1.0000E-10   0.000    
  15    0.000       0.000      8.0000E-10  8.0000E-10  8.0000E-10  8.0000E-10   0.000       0.000       0.000       0.000    

                  ET RATE =  3.250000E-07

 USING ET EXTINCTION DEPTH FROM PREVIOUS STRESS PERIOD. CURRENT PERIOD IS:      33

 USING EXTINCTION WATER CONTENT FROM PREVIOUS STRESS PERIOD. CURRENT PERIOD IS:      33

 USING AIR ENTRY PRESSURE FROM PREVIOUS STRESS PERIOD. CURRENT PERIOD IS:      33

 USING ROOT PRESSURE HEAD FROM PREVIOUS STRESS PERIOD. CURRENT PERIOD IS:      33

 USING ROOT ACTIVITY FROM PREVIOUS STRESS PERIOD. CURRENT PERIOD IS:      33

 PROCESSING AG STRESS PERIOD DATA

 READING AG STRESS PERIOD DATA

 READING IRRIGATION SEGMENT

 READING IRRIGATION WELL

 READING SUPPLEMENTAL WELL

 NO IRRPOND OR REUSING IRRPOND DATA FROM LAST STRESS PERIOD

 END PROCESSING AG STRESS PERIOD DATA OPTIONS
 
 SOLVING FOR HEAD 
                                                   Max.-Head-Change                         Max.-Flux-Residual
  Residual-Control   Outer-Iter.   Inner-Iter.     Column Row Layer    Maximum-Head-Change  Column Row Layer    Maximum-Flux-Residual          L2-NORM 
          0                 1           2             5    8     1       0.1479599677E+00       5    8    1         0.8075056575E+01      0.1863926762E+02
          0                 2           2             5    8     1      -0.1464067781E+00       5    8    1        -0.8075669723E+01      0.1941462184E+02
          0                 3           2             5    8     1       0.9969684760E-02       5    8    1         0.5652923235E+00      0.1359013259E+01
          0                 4           2             5    8     1      -0.3967034348E-03       5    8    1        -0.2312051050E-01      0.5558376976E-01
          0                 5           1             5    8     1       0.4891524676E-05       5    8    1         0.2930080864E-03      0.7044186437E-03

    ------------------------------------------------
       NWT REQUIRED            5 OUTER ITERATIONS 
       AND A TOTAL OF          9 INNER ITERATIONS.
    ------------------------------------------------

 NO OUTPUT CONTROL FOR STRESS PERIOD   33   TIME STEP    1
 
 SOLVING FOR HEAD 
                                                   Max.-Head-Change                         Max.-Flux-Residual
  Residual-Control   Outer-Iter.   Inner-Iter.     Column Row Layer    Maximum-Head-Change  Column Row Layer    Maximum-Flux-Residual          L2-NORM 
          0                 1           2             5    8     1       0.1449178536E+00       5    8    1         0.7904448011E+01      0.1839158275E+02
          0                 2           2             5    8     1      -0.3828214902E-01       5    8    1        -0.2121992999E+01      0.4942829345E+01
          0                 3           2             4    7     1      -0.6388862221E-01       4    7    1        -0.3428930930E+01      0.8371191827E+01
          0                 4           2             4    7     1       0.3581043277E-01       4    7    1         0.1975461465E+01      0.4836392982E+01
          0                 5           2             4    7     1      -0.1425276050E-02       4    7    1        -0.8081819417E-01      0.1979032821E+00
          0                 6           1             4    7     1       0.1758730716E-04       4    7    1         0.1025000886E-02      0.2510752364E-02

    ------------------------------------------------
       NWT REQUIRED            6 OUTER ITERATIONS 
       AND A TOTAL OF         11 INNER ITERATIONS.
    ------------------------------------------------

 NO OUTPUT CONTROL FOR STRESS PERIOD   33   TIME STEP    2
 
 SOLVING FOR HEAD 
                                                   Max.-Head-Change                         Max.-Flux-Residual
  Residual-Control   Outer-Iter.   Inner-Iter.     Column Row Layer    Maximum-Head-Change  Column Row Layer    Maximum-Flux-Residual          L2-NORM 
          0                 1           2             5    8     1       0.1398822561E+00       5    8    1         0.7624042539E+01      0.1789979988E+02
          0                 2           2             5    8     1      -0.7995772119E-01       5    8    1        -0.4415390434E+01      0.1056002443E+02
          0                 3           2             4    7     1      -0.5006043848E+00       4    7    1        -0.2686431605E+02      0.6576959499E+02
          0                 4           2             4    7     1       0.3409267280E-01       4    7    1         0.1880708358E+01      0.4604939049E+01
          0                 5           2             4    7     1      -0.1356907813E-02       4    7    1        -0.7694100335E-01      0.1884207123E+00
          0                 6           1             4    7     1       0.1674367226E-04       4    7    1         0.9758184510E-03      0.2390151755E-02

    ------------------------------------------------
       NWT REQUIRED            6 OUTER ITERATIONS 
       AND A TOTAL OF         11 INNER ITERATIONS.
    ------------------------------------------------

 NO OUTPUT CONTROL FOR STRESS PERIOD   33   TIME STEP    3
 
 SOLVING FOR HEAD 
                                                   Max.-Head-Change                         Max.-Flux-Residual
  Residual-Control   Outer-Iter.   Inner-Iter.     Column Row Layer    Maximum-Head-Change  Column Row Layer    Maximum-Flux-Residual          L2-NORM 
          0                 1           2             5    8     1       0.1500638161E+00       5    8    1         0.8183221004E+01      0.1908815002E+02
          0                 2           2             5    8     1      -0.1459682948E-01       5    8    1        -0.8183021646E+00      0.1908656262E+01
          0                 3           2             4    7     1      -0.6389426997E-02       4    7    1        -0.3433398684E+00      0.8108856320E+00
          0                 4           2             4    7     1       0.7223144330E-02       4    7    1         0.3984846317E+00      0.9734820192E+00
          0                 5           2             4    7     1      -0.2836254595E-03       4    7    1        -0.1608365958E-01      0.3929915471E-01
          0                 6           1             4    7     1       0.3499821037E-05       4    7    1         0.2039870153E-03      0.4986005999E-03

    ------------------------------------------------
       NWT REQUIRED            6 OUTER ITERATIONS 
       AND A TOTAL OF         11 INNER ITERATIONS.
    ------------------------------------------------

 NO OUTPUT CONTROL FOR STRESS PERIOD   33   TIME STEP    4
 
 SOLVING FOR HEAD 
                                                   Max.-Head-Change                         Max.-Flux-Residual
  Residual-Control   Outer-Iter.   Inner-Iter.     Column Row Layer    Maximum-Head-Change  Column Row Layer    Maximum-Flux-Residual          L2-NORM 
          0                 1           2             5    8     1       0.1431288274E+00       5    8    1         0.7798012605E+01      0.1838692366E+02
          0                 2           2             5    6     1      -0.1546792182E+00       5    8    1        -0.8524892542E+01      0.2059780365E+02
          0                 3           2             4    7     1       0.5603764644E-01       5    8    1         0.3113739060E+01      0.7605117666E+01
          0                 4           2             4    7     1      -0.2229807352E-02       5    8    1        -0.1273285106E+00      0.3110138802E+00
          0                 5           1             4    7     1       0.2749446409E-04       5    8    1         0.1611984822E-02      0.3941277818E-02

    ------------------------------------------------
       NWT REQUIRED            5 OUTER ITERATIONS 
       AND A TOTAL OF          9 INNER ITERATIONS.
    ------------------------------------------------

 NO OUTPUT CONTROL FOR STRESS PERIOD   33   TIME STEP    5
 
 SOLVING FOR HEAD 
                                                   Max.-Head-Change                         Max.-Flux-Residual
  Residual-Control   Outer-Iter.   Inner-Iter.     Column Row Layer    Maximum-Head-Change  Column Row Layer    Maximum-Flux-Residual          L2-NORM 
          0                 1           2             5    8     1       0.1394494228E+00       5    8    1         0.7592796531E+01      0.1803888040E+02
          0                 2           2             5    6     1      -0.1039901710E+00       5    8    1        -0.5736402522E+01      0.1381190624E+02
          0                 3           2             4    7     1      -0.1685712874E+00       4    7    1        -0.9046278782E+01      0.2212772531E+02
          0                 4           2             4    7     1       0.1148052021E-01       4    7    1         0.6333303392E+00      0.1549342621E+01
          0                 5           2             4    7     1      -0.4569297445E-03       4    7    1        -0.2590993419E-01      0.6339515203E-01
          0                 6           1             4    7     1       0.5638323470E-05       4    7    1         0.3286085232E-03      0.8041995979E-03

    ------------------------------------------------
       NWT REQUIRED            6 OUTER ITERATIONS 
       AND A TOTAL OF         11 INNER ITERATIONS.
    ------------------------------------------------

 NO OUTPUT CONTROL FOR STRESS PERIOD   33   TIME STEP    6
 
 SOLVING FOR HEAD 
                                                   Max.-Head-Change                         Max.-Flux-Residual
  Residual-Control   Outer-Iter.   Inner-Iter.     Column Row Layer    Maximum-Head-Change  Column Row Layer    Maximum-Flux-Residual          L2-NORM 
          0                 1           2             5    8     1       0.1409570445E+00       5    8    1         0.7673903082E+01      0.1825436159E+02
          0                 2           2             5    8     1      -0.1510322438E-01       5    8    1        -0.8440204304E+00      0.1991572066E+01
          0                 3           2             4    7     1      -0.2627146377E-01       4    7    1        -0.1410150485E+01      0.3443671872E+01
          0                 4           2             4    7     1       0.2738095736E-01       4    7    1         0.1510423602E+01      0.3697643301E+01
          0                 5           2             4   13     1      -0.1301774556E-03       4   13    1        -0.7658787272E-02      0.1369187396E-01
          0                 6           2             4    7     1      -0.3046901460E-03       5    6    1        -0.1727617661E-01      0.4537727463E-01
          0                 7           2             4    7     1      -0.5161312285E-02       4    7    1        -0.2926394678E+00      0.7221360930E+00
          0                 8           2             4    7     1       0.5318090275E-02       5    8    1         0.3099115256E+00      0.7591639870E+00
          0                 9           2             4    7     1      -0.1203001324E-01       5    8    1        -0.7204639419E+00      0.1774859877E+01
          0                10           1             4   13     1       0.6860356152E-04       4   13    1         0.4145632685E-02      0.1209036136E-01

    ------------------------------------------------
       NWT REQUIRED           10 OUTER ITERATIONS 
       AND A TOTAL OF         19 INNER ITERATIONS.
    ------------------------------------------------

 NO OUTPUT CONTROL FOR STRESS PERIOD   33   TIME STEP    7
 
 SOLVING FOR HEAD 
                                                   Max.-Head-Change                         Max.-Flux-Residual
  Residual-Control   Outer-Iter.   Inner-Iter.     Column Row Layer    Maximum-Head-Change  Column Row Layer    Maximum-Flux-Residual          L2-NORM 
          0                 1           2             5    8     1       0.1350663376E+00       5    8    1         0.7346989137E+01      0.1766030971E+02
          0                 2           2             5    6     1      -0.6831380159E-01       5    8    1        -0.3772340371E+01      0.9063965152E+01
          0                 3           2             5    8     1       0.4123150763E-02       5    8    1         0.2341420562E+00      0.5610381215E+00
          0                 4           2             4    7     1      -0.8788232992E-03       5    8    1        -0.5056940044E-01      0.1231855023E+00
          0                 5           2             4    7     1      -0.1252578840E-02       4    7    1        -0.7102085017E-01      0.1739506201E+00
          0                 6           2             4    7     1      -0.1298041268E-02       5    8    1        -0.7359789813E-01      0.1802760635E+00
          0                 7           2             4    7     1      -0.1384382608E-02       5    8    1        -0.7849244829E-01      0.1922653404E+00
          0                 8           2             4    7     1      -0.1193038398E-01       5    8    1        -0.6764276871E+00      0.1656901481E+01
          0                 9           2             4    7     1      -0.1179733167E-02       5    8    1        -0.6688886906E-01      0.1638345546E+00
          0                10           2             4    7     1      -0.1299174029E-01       4    7    1        -0.7365894904E+00      0.1804267597E+01
                                                   Max.-Head-Change                         Max.-Flux-Residual
  Residual-Control   Outer-Iter.   Inner-Iter.     Column Row Layer    Maximum-Head-Change  Column Row Layer    Maximum-Flux-Residual          L2-NORM 
          0                11           2             4    7     1      -0.1097729204E-01       5    8    1        -0.6223719113E+00      0.1524482171E+01
          0                12           2             4    7     1       0.1361016516E-03       5    6    1         0.7938020761E-02      0.1944577655E-01
          0                13           1             4    7     1       0.1992437479E-05       5    8    1         0.1162660303E-03      0.2847979550E-03

    ------------------------------------------------
       NWT REQUIRED           13 OUTER ITERATIONS 
       AND A TOTAL OF         25 INNER ITERATIONS.
    ------------------------------------------------

 NO OUTPUT CONTROL FOR STRESS PERIOD   33   TIME STEP    8
 
 SOLVING FOR HEAD 
                                                   Max.-Head-Change                         Max.-Flux-Residual
  Residual-Control   Outer-Iter.   Inner-Iter.     Column Row Layer    Maximum-Head-Change  Column Row Layer    Maximum-Flux-Residual          L2-NORM 
          0                 1           2             5    8     1       0.1320796675E+00       5    8    1         0.7180575747E+01      0.1737552600E+02
          0                 2           2             5    6     1      -0.6564819129E-01       5    8    1        -0.3624083990E+01      0.8720935956E+01
          0                 3           2             5    8     1       0.1427906353E-02       5    8    1         0.8156180584E-01      0.1930019283E+00
          0                 4           2             4    7     1       0.1525005957E-02       4    7    1         0.8413419876E-01      0.2050630466E+00
          0                 5           2             4    7     1      -0.1435137713E-01       4    7    1        -0.8137155368E+00      0.1993147476E+01
          0                 6           2             4    7     1      -0.1296621395E-01       4    7    1        -0.7351686665E+00      0.1800776669E+01
          0                 7           2             4    7     1       0.1601265478E-03       5    8    1         0.9340828548E-02      0.2288375882E-01
          0                 8           1             4    7     1       0.2351958516E-05       5    8    1         0.1371978478E-03      0.3361163195E-03

    ------------------------------------------------
       NWT REQUIRED            8 OUTER ITERATIONS 
       AND A TOTAL OF         15 INNER ITERATIONS.
    ------------------------------------------------

 NO OUTPUT CONTROL FOR STRESS PERIOD   33   TIME STEP    9
 
 SOLVING FOR HEAD 
                                                   Max.-Head-Change                         Max.-Flux-Residual
  Residual-Control   Outer-Iter.   Inner-Iter.     Column Row Layer    Maximum-Head-Change  Column Row Layer    Maximum-Flux-Residual          L2-NORM 
          0                 1           2             5    8     1       0.3778870028E+00       5    8    1         0.2074062445E+02      0.2592454723E+02
          0                 2           2             5    6     1      -0.7045583931E-01       5    6    1        -0.3882831452E+01      0.8555833537E+01
          0                 3           2             4    7     1      -0.5095206492E+00       5    8    1        -0.2769812714E+02      0.6710285536E+02
          0                 4           2             5    8     1      -0.7658336620E-01       5    8    1        -0.4401039736E+01      0.6138532049E+01
          0                 5           2             5    8     1      -0.1166218733E-01       5    8    1        -0.6589753790E+00      0.6822696149E+00
          0                 6           1             5    8     1      -0.1775765775E-02       5    8    1        -0.1007209513E+00      0.1007382659E+00
          0                 7           1             5    8     1      -0.2703754982E-03       5    8    1        -0.1533064519E-01      0.1533128383E-01
          0                 8           1             5    8     1      -0.4116481149E-04       5    8    1        -0.2334137729E-02      0.2334208853E-02

    ------------------------------------------------
       NWT REQUIRED            8 OUTER ITERATIONS 
       AND A TOTAL OF         13 INNER ITERATIONS.
    ------------------------------------------------

 NO OUTPUT CONTROL FOR STRESS PERIOD   33   TIME STEP   10
 
 SOLVING FOR HEAD 
                                                   Max.-Head-Change                         Max.-Flux-Residual
  Residual-Control   Outer-Iter.   Inner-Iter.     Column Row Layer    Maximum-Head-Change  Column Row Layer    Maximum-Flux-Residual          L2-NORM 
          0                 1           2             5    8     1       0.4244186258E+00       5    8    1         0.2329719443E+02      0.2866063721E+02
          0                 2           2             5    8     1       0.5590233344E-01       5    8    1         0.3096188160E+01      0.3517379393E+01
          0                 3           2             4    7     1      -0.6341173261E-02       4    7    1        -0.3407895807E+00      0.7464680976E+00
          0                 4           2             4    7     1       0.7236493745E-02       4    7    1         0.3992122063E+00      0.9675922424E+00
          0                 5           2             5    8     1       0.9333909667E-03       5    8    1         0.5196005454E-01      0.6303130320E-01
          0                 6           1             5    8     1       0.1229549683E-03       5    8    1         0.6774125434E-02      0.6794298123E-02
          0                 7           1             5    8     1       0.1619678373E-04       5    8    1         0.8929464707E-03      0.8932977848E-03

    ------------------------------------------------
       NWT REQUIRED            7 OUTER ITERATIONS 
       AND A TOTAL OF         12 INNER ITERATIONS.
    ------------------------------------------------

 NO OUTPUT CONTROL FOR STRESS PERIOD   33   TIME STEP   11
 
 SOLVING FOR HEAD 
                                                   Max.-Head-Change                         Max.-Flux-Residual
  Residual-Control   Outer-Iter.   Inner-Iter.     Column Row Layer    Maximum-Head-Change  Column Row Layer    Maximum-Flux-Residual          L2-NORM 
          0                 1           2             5    6     1       0.1332956766E+00       5    6    1         0.7220018221E+01      0.1720163851E+02
          0                 2           2             5    7     1      -0.1546993072E+00       5    6    1        -0.8466188306E+01      0.2004090337E+02
          0                 3           2             4    7     1       0.5606232490E-01       5    6    1         0.3108217158E+01      0.7139910427E+01
          0                 4           2             4    7     1      -0.2230280804E-02       5    6    1        -0.1271045667E+00      0.2837729794E+00
          0                 5           1             4    7     1       0.2750277469E-04       5    6    1         0.1609272708E-02      0.3605233578E-02

    ------------------------------------------------
       NWT REQUIRED            5 OUTER ITERATIONS 
       AND A TOTAL OF          9 INNER ITERATIONS.
    ------------------------------------------------

 NO OUTPUT CONTROL FOR STRESS PERIOD   33   TIME STEP   12
 
 SOLVING FOR HEAD 
                                                   Max.-Head-Change                         Max.-Flux-Residual
  Residual-Control   Outer-Iter.   Inner-Iter.     Column Row Layer    Maximum-Head-Change  Column Row Layer    Maximum-Flux-Residual          L2-NORM 
          0                 1           2             5    8     1       0.5566809076E+00       5    8    1         0.3057758427E+02      0.3454590797E+02
          0                 2           2             5    6     1      -0.1032376515E+00       5    6    1        -0.5684259119E+01      0.1262265614E+02
          0                 3           2             5    8     1      -0.1741942799E+00       5    8    1        -0.9607313277E+01      0.2236926099E+02
          0                 4           2             5    8     1      -0.2702608229E-01       5    8    1        -0.1552014122E+01      0.2099843796E+01
          0                 5           2             5    8     1      -0.4192911159E-02       5    8    1        -0.2370139719E+00      0.2441188721E+00
          0                 6           1             5    8     1      -0.6504595541E-03       5    8    1        -0.3689688868E-01      0.3690195318E-01
          0                 7           1             5    8     1      -0.1009025923E-03       5    8    1        -0.5721950433E-02      0.5722175231E-02
          0                 8           1             5    8     1      -0.1565172322E-04       5    8    1        -0.8875849753E-03      0.8876113908E-03

    ------------------------------------------------
       NWT REQUIRED            8 OUTER ITERATIONS 
       AND A TOTAL OF         13 INNER ITERATIONS.
    ------------------------------------------------

 NO OUTPUT CONTROL FOR STRESS PERIOD   33   TIME STEP   13
 
 SOLVING FOR HEAD 
                                                   Max.-Head-Change                         Max.-Flux-Residual
  Residual-Control   Outer-Iter.   Inner-Iter.     Column Row Layer    Maximum-Head-Change  Column Row Layer    Maximum-Flux-Residual          L2-NORM 
          0                 1           2             5    8     1       0.2304431550E+00       5    8    1         0.1255502735E+02      0.2076403153E+02
          0                 2           2             5    8     1       0.1125193102E+00       5    8    1         0.6226909472E+01      0.6484092169E+01
          0                 3           2             5    8     1       0.2859482668E-01       5    8    1         0.1620221928E+01      0.3536710285E+01
          0                 4           2             5    8     1       0.4049801728E-01       5    8    1         0.2188902494E+01      0.4023429936E+01
          0                 5           2             5    8     1       0.2114433572E-01       5    8    1         0.1166700376E+01      0.1166776712E+01
          0                 6           2             5    8     1       0.1013207875E-01       5    8    1         0.5595630863E+00      0.5610755826E+00
          0                 7           2             4    7     1      -0.5164926140E-02       4    7    1        -0.2929629975E+00      0.6604913289E+00
          0                 8           2             4    7     1       0.5321777144E-02       5    6    1         0.3101251098E+00      0.7529404988E+00
          0                 9           2             4    7     1      -0.1206561500E-01       5    6    1        -0.7226429050E+00      0.1723522626E+01
          0                10           2             5    8     1      -0.4910125568E-02       5    8    1        -0.2940180421E+00      0.2947682814E+00
                                                   Max.-Head-Change                         Max.-Flux-Residual
  Residual-Control   Outer-Iter.   Inner-Iter.     Column Row Layer    Maximum-Head-Change  Column Row Layer    Maximum-Flux-Residual          L2-NORM 
          0                11           2             5    8     1      -0.2240639700E-02       5    8    1        -0.1349514035E+00      0.1435644708E+00
          0                12           1             5    8     1      -0.1197845661E-02       5    8    1        -0.7183188634E-01      0.7190076156E-01
          0                13           1             5    8     1      -0.6403626085E-03       5    8    1        -0.3837966214E-01      0.3838006664E-01
          0                14           1             5    8     1      -0.3423318765E-03       5    8    1        -0.2051538607E-01      0.2051557177E-01
          0                15           1             5    8     1      -0.1830058561E-03       5    8    1        -0.1096696374E-01      0.1096709619E-01
          0                16           1             5    8     1      -0.9783154281E-04       5    8    1        -0.5862662378E-02      0.5862736678E-02

    ------------------------------------------------
       NWT REQUIRED           16 OUTER ITERATIONS 
       AND A TOTAL OF         27 INNER ITERATIONS.
    ------------------------------------------------

 NO OUTPUT CONTROL FOR STRESS PERIOD   33   TIME STEP   14
 
 SOLVING FOR HEAD 
                                                   Max.-Head-Change                         Max.-Flux-Residual
  Residual-Control   Outer-Iter.   Inner-Iter.     Column Row Layer    Maximum-Head-Change  Column Row Layer    Maximum-Flux-Residual          L2-NORM 
          0                 1           2             5    8     1       0.1603338347E+00       5    8    1         0.8671717719E+01      0.1843760439E+02
          0                 2           2             5    7     1      -0.6862683358E-01       5    7    1        -0.3754529447E+01      0.8530219313E+01
          0                 3           2             5    8     1      -0.5894545699E-02       5    8    1        -0.3412090289E+00      0.6223336676E+00
          0                 4           2             5    8     1      -0.1834555698E-02       5    8    1        -0.1022503458E+00      0.1686650160E+00
          0                 5           2             5    8     1      -0.4673311917E-02       5    8    1        -0.2577994007E+00      0.5970907367E+00
          0                 6           2             5    8     1      -0.2022312383E-02       5    8    1        -0.1126392903E+00      0.1898177330E+00
          0                 7           2             5    8     1      -0.1747394022E-02       5    8    1        -0.9675353622E-01      0.1995446756E+00
          0                 8           2             5    8     1      -0.1412083503E-01       5    8    1        -0.7779262927E+00      0.1872082345E+01
          0                 9           2             5    8     1      -0.3642677940E-02       5    8    1        -0.2044786015E+00      0.2577081846E+00
          0                10           2             5    8     1      -0.1500742562E-01       5    8    1        -0.8272083263E+00      0.1959110011E+01
                                                   Max.-Head-Change                         Max.-Flux-Residual
  Residual-Control   Outer-Iter.   Inner-Iter.     Column Row Layer    Maximum-Head-Change  Column Row Layer    Maximum-Flux-Residual          L2-NORM 
          0                11           2             5    8     1      -0.2335553437E-02       5    8    1        -0.1327515013E+00      0.1345606345E+00
          0                12           1             5    8     1      -0.3634559496E-03       5    8    1        -0.2061375962E-01      0.2061549236E-01
          0                13           1             5    8     1      -0.5655765368E-04       5    8    1        -0.3206756900E-02      0.3207157069E-02

    ------------------------------------------------
       NWT REQUIRED           13 OUTER ITERATIONS 
       AND A TOTAL OF         24 INNER ITERATIONS.
    ------------------------------------------------

 NO OUTPUT CONTROL FOR STRESS PERIOD   33   TIME STEP   15
 
 SOLVING FOR HEAD 
                                                   Max.-Head-Change                         Max.-Flux-Residual
  Residual-Control   Outer-Iter.   Inner-Iter.     Column Row Layer    Maximum-Head-Change  Column Row Layer    Maximum-Flux-Residual          L2-NORM 
          0                 1           2             5    7     1       0.1316526830E+00       5    7    1         0.7080374433E+01      0.1622974354E+02
          0                 2           2             5    7     1      -0.6887633665E-01       5    7    1        -0.3755810610E+01      0.8758792383E+01
          0                 3           2             5    8     1      -0.7550838434E-02       5    8    1        -0.4354156854E+00      0.6923796247E+00
          0                 4           2             4    7     1      -0.1053774880E-02       4    8    1        -0.6045420124E-01      0.1360570281E+00
          0                 5           2             5    8     1      -0.1296761543E-02       4    8    1        -0.7213554285E-01      0.1763704439E+00
          0                 6           2             4    7     1      -0.1368309654E-02       5    7    1        -0.7764204449E-01      0.1884021592E+00
          0                 7           2             5    8     1      -0.1290561905E-01       5    7    1        -0.7147683836E+00      0.1748966661E+01
          0                 8           2             4    7     1      -0.1151068076E-02       5    7    1        -0.6588365849E-01      0.1483362094E+00
          0                 9           2             5    8     1      -0.1372935479E-02       5    7    1        -0.7649321896E-01      0.1869738627E+00
          0                10           2             4    7     1      -0.1380519656E-02       5    7    1        -0.7833482420E-01      0.1899972988E+00
                                                   Max.-Head-Change                         Max.-Flux-Residual
  Residual-Control   Outer-Iter.   Inner-Iter.     Column Row Layer    Maximum-Head-Change  Column Row Layer    Maximum-Flux-Residual          L2-NORM 
          0                11           2             5    8     1      -0.1376558461E-01       5    7    1        -0.7621098803E+00      0.1864918845E+01
          0                12           2             5    8     1       0.9385895389E-03       5    8    1         0.5446204381E-01      0.5842242570E-01
          0                13           1             5    8     1      -0.3742711083E-04       5    8    1        -0.2249259930E-02      0.2276995565E-02

    ------------------------------------------------
       NWT REQUIRED           13 OUTER ITERATIONS 
       AND A TOTAL OF         25 INNER ITERATIONS.
    ------------------------------------------------

 NO OUTPUT CONTROL FOR STRESS PERIOD   33   TIME STEP   16
 
 SOLVING FOR HEAD 
                                                   Max.-Head-Change                         Max.-Flux-Residual
  Residual-Control   Outer-Iter.   Inner-Iter.     Column Row Layer    Maximum-Head-Change  Column Row Layer    Maximum-Flux-Residual          L2-NORM 
          0                 1           2             4    8     1       0.1287315346E+00       4    8    1         0.6917783454E+01      0.1598052774E+02
          0                 2           2             5    7     1      -0.7019424235E-01       4    8    1        -0.3820078736E+01      0.9095046952E+01
          0                 3           2             4    7     1      -0.5093508830E+00       5    8    1        -0.2746085646E+02      0.6698677359E+02
          0                 4           2             4    7     1       0.3468835117E-01       5    8    1         0.1922836148E+01      0.4690158207E+01
          0                 5           2             4    7     1      -0.1380616249E-02       5    8    1        -0.7867810671E-01      0.1919071363E+00
          0                 6           1             4    7     1       0.1703622457E-04       5    8    1         0.9980186021E-03      0.2434367593E-02

    ------------------------------------------------
       NWT REQUIRED            6 OUTER ITERATIONS 
       AND A TOTAL OF         11 INNER ITERATIONS.
    ------------------------------------------------

 NO OUTPUT CONTROL FOR STRESS PERIOD   33   TIME STEP   17
 
 SOLVING FOR HEAD 
                                                   Max.-Head-Change                         Max.-Flux-Residual
  Residual-Control   Outer-Iter.   Inner-Iter.     Column Row Layer    Maximum-Head-Change  Column Row Layer    Maximum-Flux-Residual          L2-NORM 
          0                 1           2             5    8     1       0.2464092872E+00       5    8    1         0.1343144708E+02      0.2148235764E+02
          0                 2           2             5    8     1       0.1200350769E+00       5    8    1         0.6639814790E+01      0.6848170661E+01
          0                 3           2             5    8     1       0.5139055496E-01       5    8    1         0.2845845259E+01      0.2942407628E+01
          0                 4           2             5    8     1       0.3211087333E-01       5    8    1         0.1759608736E+01      0.1976686129E+01
          0                 5           2             5    8     1       0.1564603501E-01       5    8    1         0.8637743852E+00      0.8644845129E+00
          0                 6           2             5    8     1       0.7621547788E-02       5    8    1         0.4205086058E+00      0.4205130521E+00
          0                 7           1             5    8     1       0.3712632527E-02       5    8    1         0.2048369040E+00      0.2048396479E+00
          0                 8           1             5    8     1       0.1808509111E-02       5    8    1         0.9978079920E-01      0.9978214583E-01
          0                 9           1             5    8     1       0.8809665356E-03       5    8    1         0.4860554351E-01      0.4860619944E-01
          0                10           1             5    8     1       0.4291391229E-03       5    8    1         0.2367688493E-01      0.2367720436E-01
                                                   Max.-Head-Change                         Max.-Flux-Residual
  Residual-Control   Outer-Iter.   Inner-Iter.     Column Row Layer    Maximum-Head-Change  Column Row Layer    Maximum-Flux-Residual          L2-NORM 
          0                11           1             5    8     1       0.2090435638E-03       5    8    1         0.1153355763E-01      0.1153371320E-01
          0                12           1             5    8     1       0.1018299404E-03       5    8    1         0.5618262156E-02      0.5618337925E-02
          0                13           1             5    8     1       0.4960371211E-04       5    8    1         0.2736785135E-02      0.2736822032E-02

    ------------------------------------------------
       NWT REQUIRED           13 OUTER ITERATIONS 
       AND A TOTAL OF         19 INNER ITERATIONS.
    ------------------------------------------------

 NO OUTPUT CONTROL FOR STRESS PERIOD   33   TIME STEP   18
 
 SOLVING FOR HEAD 
                                                   Max.-Head-Change                         Max.-Flux-Residual
  Residual-Control   Outer-Iter.   Inner-Iter.     Column Row Layer    Maximum-Head-Change  Column Row Layer    Maximum-Flux-Residual          L2-NORM 
          0                 1           2             5    8     1       0.5099252282E+00       5    8    1         0.2795556887E+02      0.3245891074E+02
          0                 2           2             5    7     1      -0.1547115348E+00       4    8    1        -0.8471622999E+01      0.1911696651E+02
          0                 3           2             4    7     1       0.5601530544E-01       4    8    1         0.3102790335E+01      0.7197824499E+01
          0                 4           2             5    8     1       0.6163634333E-02       5    8    1         0.3632941002E+00      0.4607270593E+00
          0                 5           1             5    8     1       0.1083712204E-02       5    8    1         0.6314818650E-01      0.6325849784E-01
          0                 6           1             5    8     1       0.1905340551E-03       5    8    1         0.1110923172E-01      0.1110988357E-01
          0                 7           1             5    8     1       0.3349745583E-04       5    8    1         0.1953189962E-02      0.1953251311E-02

    ------------------------------------------------
       NWT REQUIRED            7 OUTER ITERATIONS 
       AND A TOTAL OF         11 INNER ITERATIONS.
    ------------------------------------------------

 NO OUTPUT CONTROL FOR STRESS PERIOD   33   TIME STEP   19
 
 SOLVING FOR HEAD 
                                                   Max.-Head-Change                         Max.-Flux-Residual
  Residual-Control   Outer-Iter.   Inner-Iter.     Column Row Layer    Maximum-Head-Change  Column Row Layer    Maximum-Flux-Residual          L2-NORM 
          0                 1           2             4    8     1       0.1410180487E+00       4    8    1         0.7613865543E+01      0.1658336602E+02
          0                 2           2             4    8     1      -0.1053767653E+00       4    8    1        -0.5737389037E+01      0.1360126255E+02
          0                 3           2             4    7     1      -0.1684516928E+00       5    8    1        -0.9195123905E+01      0.2218821540E+02
          0                 4           2             4    7     1       0.1147239364E-01       5    8    1         0.6437233482E+00      0.1553520858E+01
          0                 5           2             4    7     1      -0.4566062982E-03       5    8    1        -0.2632972920E-01      0.6356400091E-01
          0                 6           1             4    7     1       0.5634332008E-05       5    8    1         0.3334690618E-03      0.8070103394E-03

    ------------------------------------------------
       NWT REQUIRED            6 OUTER ITERATIONS 
       AND A TOTAL OF         11 INNER ITERATIONS.
    ------------------------------------------------

 NO OUTPUT CONTROL FOR STRESS PERIOD   33   TIME STEP   20
 
 SOLVING FOR HEAD 
                                                   Max.-Head-Change                         Max.-Flux-Residual
  Residual-Control   Outer-Iter.   Inner-Iter.     Column Row Layer    Maximum-Head-Change  Column Row Layer    Maximum-Flux-Residual          L2-NORM 
          0                 1           2             5    8     1       0.3519606627E+00       5    8    1         0.1922684402E+02      0.2547048064E+02
          0                 2           2             5    8     1       0.1080438919E+00       5    8    1         0.5984164576E+01      0.6257301419E+01
          0                 3           2             4    7     1      -0.2614950560E-01       4    7    1        -0.1403839558E+01      0.3214082277E+01
          0                 4           2             4    7     1       0.2737490572E-01       4    7    1         0.1510096333E+01      0.3616301552E+01
          0                 5           2             5    8     1       0.5096925578E-02       5    8    1         0.2972788865E+00      0.2975875203E+00
          0                 6           2             5    8     1       0.5865325908E-03       5    8    1         0.3472557777E-01      0.5450435988E-01
          0                 7           2             4    7     1      -0.5191108418E-02       4    7    1        -0.2943163017E+00      0.7239302378E+00
          0                 8           2             4    7     1       0.5336977991E-02       5    6    1         0.3110201601E+00      0.7385353521E+00
          0                 9           2             4    7     1      -0.1221919926E-01       5    6    1        -0.7317761232E+00      0.1782297373E+01
          0                10           2             5    8     1      -0.1336470812E-02       5    8    1        -0.8616981859E-01      0.1441173883E+00
                                                   Max.-Head-Change                         Max.-Flux-Residual
  Residual-Control   Outer-Iter.   Inner-Iter.     Column Row Layer    Maximum-Head-Change  Column Row Layer    Maximum-Flux-Residual          L2-NORM 
          0                11           2             4    7     1       0.2231291313E-03       5    6    1         0.1374137264E-01      0.3233150595E-01
          0                12           1             5    8     1      -0.3690843833E-04       5    8    1        -0.2364320783E-02      0.3131299881E-02

    ------------------------------------------------
       NWT REQUIRED           12 OUTER ITERATIONS 
       AND A TOTAL OF         23 INNER ITERATIONS.
    ------------------------------------------------

 NO OUTPUT CONTROL FOR STRESS PERIOD   33   TIME STEP   21
 
 SOLVING FOR HEAD 
                                                   Max.-Head-Change                         Max.-Flux-Residual
  Residual-Control   Outer-Iter.   Inner-Iter.     Column Row Layer    Maximum-Head-Change  Column Row Layer    Maximum-Flux-Residual          L2-NORM 
          0                 1           2             5    8     1       0.3010569268E+00       5    8    1         0.1629712228E+02      0.2640774690E+02
          0                 2           2             4    8     1       0.8137025158E-01       4    8    1         0.4468850316E+01      0.8729902531E+01
          0                 3           2             4    8     1       0.3979186490E-01       4    8    1         0.2158417099E+01      0.2211785210E+01
          0                 4           2             4    8     1       0.1884543392E-01       4    8    1         0.1024017638E+01      0.1032588203E+01
          0                 5           2             4    8     1       0.5200780114E-02       4    8    1         0.2882714192E+00      0.5709481712E+00
          0                 6           2             5    8     1      -0.2001643346E-02       5    8    1        -0.1132998535E+00      0.1991734338E+00
          0                 7           2             5    8     1      -0.1332581408E-01       5    8    1        -0.7346728624E+00      0.1750712958E+01
          0                 8           2             4    8     1      -0.7989927175E-02       4    8    1        -0.4417783447E+00      0.5037899495E+00
          0                 9           2             4    8     1      -0.1814658569E-01       4    8    1        -0.9905473113E+00      0.1983702995E+01
          0                10           2             4    8     1      -0.9320231394E-02       4    8    1        -0.5179878648E+00      0.5340216083E+00
                                                   Max.-Head-Change                         Max.-Flux-Residual
  Residual-Control   Outer-Iter.   Inner-Iter.     Column Row Layer    Maximum-Head-Change  Column Row Layer    Maximum-Flux-Residual          L2-NORM 
          0                11           2             4    8     1      -0.4769796987E-02       4    8    1        -0.2656783561E+00      0.2665591907E+00
          0                12           2             4    8     1      -0.2438370380E-02       4    8    1        -0.1359152752E+00      0.1359822710E+00
          0                13           2             4    8     1      -0.1246101419E-02       4    8    1        -0.6947286640E-01      0.6948214552E-01
          0                14           2             4    8     1      -0.6367370691E-03       4    8    1        -0.3550156468E-01      0.3550405585E-01
          0                15           2             4    8     1      -0.3253493410E-03       4    8    1        -0.1814020563E-01      0.1814120583E-01
          0                16           2             4    8     1      -0.1662386055E-03       4    8    1        -0.9268785226E-02      0.9269257604E-02
          0                17           1             4    8     1      -0.8493931573E-04       4    8    1        -0.4735833796E-02      0.4736069331E-02

    ------------------------------------------------
       NWT REQUIRED           17 OUTER ITERATIONS 
       AND A TOTAL OF         33 INNER ITERATIONS.
    ------------------------------------------------

 NO OUTPUT CONTROL FOR STRESS PERIOD   33   TIME STEP   22
 
 SOLVING FOR HEAD 
                                                   Max.-Head-Change                         Max.-Flux-Residual
  Residual-Control   Outer-Iter.   Inner-Iter.     Column Row Layer    Maximum-Head-Change  Column Row Layer    Maximum-Flux-Residual          L2-NORM 
          0                 1           2             4    8     1       0.6985582617E+00       4    8    1         0.3786434358E+02      0.4409960219E+02
          0                 2           2             5    7     1       0.1088222420E+00       5    7    1         0.6164309069E+01      0.9693322338E+01
          0                 3           2             5    8     1      -0.5090001628E+00       4    8    1        -0.2736369995E+02      0.6591893781E+02
          0                 4           2             5    7     1      -0.2292978957E+00       5    7    1        -0.1310782888E+02      0.1450363597E+02
          0                 5           2             5    7     1      -0.1148958990E+00       5    7    1        -0.6512568788E+01      0.6553112883E+01
          0                 6           2             5    7     1      -0.5620691601E-01       5    7    1        -0.3188587959E+01      0.3190456099E+01
          0                 7           2             5    7     1       0.3828838364E-02       5    7    1         0.2234238000E+00      0.2241336488E+00
          0                 8           2             5    7     1      -0.1524887210E-03       5    7    1        -0.9146859724E-02      0.9539851634E-02
          0                 9           1             4    8     1      -0.7579717314E-05       4    8    1        -0.4225883526E-03      0.4383707838E-03

    ------------------------------------------------
       NWT REQUIRED            9 OUTER ITERATIONS 
       AND A TOTAL OF         17 INNER ITERATIONS.
    ------------------------------------------------

 NO OUTPUT CONTROL FOR STRESS PERIOD   33   TIME STEP   23
 
 SOLVING FOR HEAD 
                                                   Max.-Head-Change                         Max.-Flux-Residual
  Residual-Control   Outer-Iter.   Inner-Iter.     Column Row Layer    Maximum-Head-Change  Column Row Layer    Maximum-Flux-Residual          L2-NORM 
          0                 1           2             5    7     1       0.6445829626E+00       5    7    1         0.3538603722E+02      0.3829451068E+02
          0                 2           2             5    7     1       0.8315667073E-01       5    7    1         0.4607400137E+01      0.4863715522E+01
          0                 3           2             5    8     1      -0.6639539427E-02       5    8    1        -0.3752384296E+00      0.7733921155E+00
          0                 4           2             5    7     1       0.7640471450E-02       5    8    1         0.4052248004E+00      0.9606442110E+00
          0                 5           2             4    8     1       0.1084303714E-02       4    8    1         0.6257131449E-01      0.8945499991E-01
          0                 6           2             4    8     1       0.1947769705E-03       4    8    1         0.1115529650E-01      0.1320144347E-01
          0                 7           1             4    8     1       0.3498242824E-04       4    8    1         0.2004414374E-02      0.2201484716E-02

    ------------------------------------------------
       NWT REQUIRED            7 OUTER ITERATIONS 
       AND A TOTAL OF         13 INNER ITERATIONS.
    ------------------------------------------------

 NO OUTPUT CONTROL FOR STRESS PERIOD   33   TIME STEP   24
 
 SOLVING FOR HEAD 
                                                   Max.-Head-Change                         Max.-Flux-Residual
  Residual-Control   Outer-Iter.   Inner-Iter.     Column Row Layer    Maximum-Head-Change  Column Row Layer    Maximum-Flux-Residual          L2-NORM 
          0                 1           2             4    8     1       0.5308268903E+00       4    8    1         0.2872004152E+02      0.3696592886E+02
          0                 2           2             4    7     1      -0.1553096869E+00       4    7    1        -0.8437224983E+01      0.1680205894E+02
          0                 3           2             4    7     1       0.5561314297E-01       4    7    1         0.3100673188E+01      0.6225826004E+01
          0                 4           2             4    8     1       0.7069084916E-02       4    8    1         0.4086728731E+00      0.5601959229E+00
          0                 5           2             4    8     1       0.1264777773E-02       4    8    1         0.7246113901E-01      0.9116769389E-01
          0                 6           2             4    8     1       0.2262815133E-03       4    8    1         0.1296984543E-01      0.1625377125E-01
          0                 7           1             4    8     1       0.4048252146E-04       4    8    1         0.2320412250E-02      0.2898717321E-02

    ------------------------------------------------
       NWT REQUIRED            7 OUTER ITERATIONS 
       AND A TOTAL OF         13 INNER ITERATIONS.
    ------------------------------------------------

 NO OUTPUT CONTROL FOR STRESS PERIOD   33   TIME STEP   25
 
 SOLVING FOR HEAD 
                                                   Max.-Head-Change                         Max.-Flux-Residual
  Residual-Control   Outer-Iter.   Inner-Iter.     Column Row Layer    Maximum-Head-Change  Column Row Layer    Maximum-Flux-Residual          L2-NORM 
          0                 1           2             5    7     1       0.5652664455E+00       5    7    1         0.3093746907E+02      0.3953257077E+02
          0                 2           2             4    7     1      -0.1037850186E+00       4    7    1        -0.5703827821E+01      0.9856602954E+01
          0                 3           2             4    8     1      -0.1805070906E+00       4    8    1        -0.9818364513E+01      0.2283727261E+02
          0                 4           2             5    6     1      -0.8934218035E-01       5    6    1        -0.5030611522E+01      0.6135849090E+01
          0                 5           2             5    6     1      -0.2860276672E-01       5    6    1        -0.1614071617E+01      0.1697465935E+01
          0                 6           2             5    6     1       0.1920278366E-02       5    6    1         0.1130983657E+00      0.1417625293E+00
          0                 7           2             5    7     1      -0.1971967764E-03       5    7    1        -0.1111076048E-01      0.1366522870E-01
          0                 8           1             5    7     1      -0.3000099123E-04       5    7    1        -0.1701996568E-02      0.1987513408E-02

    ------------------------------------------------
       NWT REQUIRED            8 OUTER ITERATIONS 
       AND A TOTAL OF         15 INNER ITERATIONS.
    ------------------------------------------------

 NO OUTPUT CONTROL FOR STRESS PERIOD   33   TIME STEP   26
 
 SOLVING FOR HEAD 
                                                   Max.-Head-Change                         Max.-Flux-Residual
  Residual-Control   Outer-Iter.   Inner-Iter.     Column Row Layer    Maximum-Head-Change  Column Row Layer    Maximum-Flux-Residual          L2-NORM 
          0                 1           2             5    6     1       0.5671724948E+00       5    6    1         0.3092630024E+02      0.3868478918E+02
          0                 2           2             5    6     1       0.1555514727E+00       5    6    1         0.8545312663E+01      0.9048726273E+01
          0                 3           2             5    6     1       0.4994817317E-01       5    6    1         0.2794231851E+01      0.4113945039E+01
          0                 4           2             5    6     1       0.5102026711E-01       5    6    1         0.2770257407E+01      0.4179254615E+01
          0                 5           2             5    6     1       0.2641427904E-01       5    6    1         0.1452149673E+01      0.1510627359E+01
          0                 6           2             5    6     1       0.1274794831E-01       5    6    1         0.7026914386E+00      0.7056391481E+00
          0                 7           2             4    7     1      -0.5183268689E-02       4    7    1        -0.2942252343E+00      0.6583525772E+00
          0                 8           2             5    6     1       0.6121904570E-02       5    6    1         0.3287807585E+00      0.7218026915E+00
          0                 9           2             4    7     1      -0.1218922348E-01       5    8    1        -0.7313941363E+00      0.1698119870E+01
          0                10           2             5    6     1      -0.3814083351E-02       5    6    1        -0.2157540502E+00      0.2656949540E+00
                                                   Max.-Head-Change                         Max.-Flux-Residual
  Residual-Control   Outer-Iter.   Inner-Iter.     Column Row Layer    Maximum-Head-Change  Column Row Layer    Maximum-Flux-Residual          L2-NORM 
          0                11           2             5    6     1      -0.1745733014E-02       5    6    1        -0.9903153789E-01      0.1031973702E+00
          0                12           2             5    6     1      -0.8873952950E-03       5    6    1        -0.5027698209E-01      0.5046233652E-01
          0                13           2             5    6     1      -0.4509465441E-03       5    6    1        -0.2555127797E-01      0.2557870229E-01
          0                14           2             5    6     1      -0.2291227392E-03       5    6    1        -0.1298387754E-01      0.1299014391E-01
          0                15           2             5    6     1      -0.1164067853E-03       5    6    1        -0.6596928294E-02      0.6598897522E-02
          0                16           1             5    6     1      -0.5913853506E-04       5    6    1        -0.3351552607E-02      0.3352330799E-02

    ------------------------------------------------
       NWT REQUIRED           16 OUTER ITERATIONS 
       AND A TOTAL OF         31 INNER ITERATIONS.
    ------------------------------------------------

 NO OUTPUT CONTROL FOR STRESS PERIOD   33   TIME STEP   27
 
 SOLVING FOR HEAD 
                                                   Max.-Head-Change                         Max.-Flux-Residual
  Residual-Control   Outer-Iter.   Inner-Iter.     Column Row Layer    Maximum-Head-Change  Column Row Layer    Maximum-Flux-Residual          L2-NORM 
          0                 1           2             4    7     1       0.3007196613E+00       4    7    1         0.1617120572E+02      0.2154694808E+02
          0                 2           2             4    6     1      -0.6775728669E-01       4    6    1        -0.3761060595E+01      0.6515117659E+01
          0                 3           2             4    8     1      -0.7967270853E-02       4    8    1        -0.4446954325E+00      0.7938664034E+00
          0                 4           2             4    8     1      -0.2151650875E-02       4    8    1        -0.1181487362E+00      0.2238589625E+00
          0                 5           2             4    8     1      -0.4128861487E-02       4    8    1        -0.2244627135E+00      0.5302919894E+00
          0                 6           2             4    7     1      -0.2012097269E-02       5    7    1        -0.1094227120E+00      0.2394537951E+00
          0                 7           2             4    7     1      -0.1792316386E-02       5    7    1        -0.9661446709E-01      0.2221714995E+00
          0                 8           2             4    7     1      -0.1391067673E-01       5    7    1        -0.7466575429E+00      0.1815206778E+01
          0                 9           2             4    7     1      -0.3655001399E-02       4    7    1        -0.1995779783E+00      0.3533634345E+00
          0                10           2             4    7     1      -0.2015452876E-02       4    7    1        -0.1096831287E+00      0.2123660901E+00
                                                   Max.-Head-Change                         Max.-Flux-Residual
  Residual-Control   Outer-Iter.   Inner-Iter.     Column Row Layer    Maximum-Head-Change  Column Row Layer    Maximum-Flux-Residual          L2-NORM 
          0                11           2             4    7     1      -0.1478889716E-01       4    7    1        -0.7942935512E+00      0.1912194103E+01
          0                12           2             4    7     1      -0.2297404625E-02       4    7    1        -0.1300631592E+00      0.1985914630E+00
          0                13           2             4    7     1      -0.3568752054E-03       4    7    1        -0.1988199403E-01      0.2816663171E-01
          0                14           1             4    7     1      -0.5543361596E-04       4    7    1        -0.3097805949E-02      0.4354133552E-02

    ------------------------------------------------
       NWT REQUIRED           14 OUTER ITERATIONS 
       AND A TOTAL OF         27 INNER ITERATIONS.
    ------------------------------------------------

 NO OUTPUT CONTROL FOR STRESS PERIOD   33   TIME STEP   28
 
 SOLVING FOR HEAD 
                                                   Max.-Head-Change                         Max.-Flux-Residual
  Residual-Control   Outer-Iter.   Inner-Iter.     Column Row Layer    Maximum-Head-Change  Column Row Layer    Maximum-Flux-Residual          L2-NORM 
          0                 1           2             4    7     1       0.4113713204E+00       4    7    1         0.2218481830E+02      0.2502075151E+02
          0                 2           2             4    6     1      -0.6821609773E-01       4    6    1        -0.3787176682E+01      0.6880864757E+01
          0                 3           2             4    8     1      -0.8316624889E-02       4    8    1        -0.4661343485E+00      0.8475184475E+00
          0                 4           2             5    7     1      -0.2185600599E-02       5    7    1        -0.1203628018E+00      0.2038041731E+00
          0                 5           2             5    6     1      -0.1604072648E-02       5    6    1        -0.8886403727E-01      0.1797344031E+00
          0                 6           2             4    7     1      -0.1608562944E-02       5    6    1        -0.8784889841E-01      0.1883133046E+00
          0                 7           2             4    7     1      -0.1733917464E-02       4    7    1        -0.9375340668E-01      0.2023799455E+00
          0                 8           2             4    7     1      -0.1378051681E-01       4    7    1        -0.7401671858E+00      0.1782608043E+01
          0                 9           2             4    7     1      -0.3611785004E-02       4    7    1        -0.2002185694E+00      0.2987542591E+00
          0                10           2             4    7     1      -0.2072878574E-02       4    7    1        -0.1125631225E+00      0.2239893161E+00
                                                   Max.-Head-Change                         Max.-Flux-Residual
  Residual-Control   Outer-Iter.   Inner-Iter.     Column Row Layer    Maximum-Head-Change  Column Row Layer    Maximum-Flux-Residual          L2-NORM 
          0                11           2             4    7     1      -0.1483509750E-01       4    7    1        -0.7968564706E+00      0.1916256141E+01
          0                12           2             4    7     1      -0.2347787740E-02       4    7    1        -0.1329465895E+00      0.1551449555E+00
          0                13           1             4    7     1      -0.3714869122E-03       4    7    1        -0.2071110830E-01      0.2097773163E-01
          0                14           1             4    7     1      -0.5877692087E-04       4    7    1        -0.3286961190E-02      0.3287201105E-02

    ------------------------------------------------
       NWT REQUIRED           14 OUTER ITERATIONS 
       AND A TOTAL OF         26 INNER ITERATIONS.
    ------------------------------------------------

 NO OUTPUT CONTROL FOR STRESS PERIOD   33   TIME STEP   29
 
 SOLVING FOR HEAD 
                                                   Max.-Head-Change                         Max.-Flux-Residual
  Residual-Control   Outer-Iter.   Inner-Iter.     Column Row Layer    Maximum-Head-Change  Column Row Layer    Maximum-Flux-Residual          L2-NORM 
          0                 1           2             4    6     1       0.1399480405E+00       4    6    1         0.7512338755E+01      0.1345721168E+02
          0                 2           2             4    6     1      -0.7028312236E-01       4    6    1        -0.3869631167E+01      0.7569671616E+01
          0                 3           2             4    7     1      -0.5211744323E+00       5    6    1        -0.2802664114E+02      0.6798500807E+02
          0                 4           2             5    7     1       0.3476746017E-01       5    7    1         0.1958188903E+01      0.4311915292E+01
          0                 5           2             5    7     1      -0.1383786931E-02       5    7    1        -0.8011772990E-01      0.1764331231E+00
          0                 6           1             5    7     1       0.1707533144E-04       5    7    1         0.1016172318E-02      0.2238097736E-02

    ------------------------------------------------
       NWT REQUIRED            6 OUTER ITERATIONS 
       AND A TOTAL OF         11 INNER ITERATIONS.
    ------------------------------------------------

 NO OUTPUT CONTROL FOR STRESS PERIOD   33   TIME STEP   30



 STREAM LISTING     PERIOD     33   STEP       30

 LAYER ROW COL. STREAM  RCH.  FLOW INTO     FLOW TO   FLOW OUT OF   OVRLND.     DIRECT     STREAM       STREAM     STREAM     STREAM   STREAMBED  STREAMBED
                SEG.NO.  NO.  STRM. RCH.    AQUIFER    STRM. RCH.    RUNOFF     PRECIP       ET          HEAD       DEPTH      WIDTH   CONDCTNC.   GRADIENT

   1    1    1     1     1    2.2874E+01  2.3513E-01   2.2639E+01  0.000E+00  0.000E+00  0.000E+00  1.09419E+03  1.146E+00  1.260E+01  5.672E-02  1.382E+00
   1    2    2     1     2    2.2639E+01  3.6351E-01   2.2276E+01  0.000E+00  0.000E+00  0.000E+00  1.08920E+03  1.141E+00  1.254E+01  8.778E-02  1.380E+00
   1    3    3     1     3    2.2276E+01  3.0939E-01   2.1966E+01  0.000E+00  0.000E+00  0.000E+00  1.08355E+03  1.136E+00  1.247E+01  7.481E-02  1.379E+00
   1    3    4     1     4    2.1966E+01  2.8439E-01   2.1682E+01  0.000E+00  0.000E+00  0.000E+00  1.07854E+03  1.131E+00  1.240E+01  6.885E-02  1.377E+00
   1    4    5     2     1    1.9682E+01  3.1521E-01   1.9367E+01  0.000E+00  0.000E+00  0.000E+00  1.07298E+03  1.041E+00  1.200E+01  7.800E-02  1.347E+00
   1    5    6     2     2    1.9367E+01  2.4193E-01   1.9125E+01  0.000E+00  0.000E+00  0.000E+00  1.06754E+03  1.032E+00  1.200E+01  6.000E-02  1.344E+00
   1    6    6     2     3    1.9125E+01  2.4146E-01   1.8883E+01  0.000E+00  0.000E+00  0.000E+00  1.06282E+03  1.024E+00  1.200E+01  6.000E-02  1.341E+00
   1    7    6     2     4    1.8883E+01  2.4099E-01   1.8642E+01  0.000E+00  0.000E+00  0.000E+00  1.05809E+03  1.017E+00  1.200E+01  6.000E-02  1.339E+00
   1    8    6     2     5    1.8642E+01  2.4052E-01   1.8402E+01  0.000E+00  0.000E+00  0.000E+00  1.05337E+03  1.009E+00  1.200E+01  6.000E-02  1.336E+00
   1    3    5     3     1    2.0000E+00  2.8252E-01   1.7175E+00  0.000E+00  0.000E+00  0.000E+00  1.07555E+03  1.909E+00  9.636E+00  7.227E-02  1.955E+00
   1    3    6     3     2    1.7175E+00  2.4905E-01   1.4684E+00  0.000E+00  0.000E+00  0.000E+00  1.07264E+03  1.727E+00  8.909E+00  6.682E-02  1.864E+00
   1    3    7     3     3    1.4684E+00  1.9718E-01   1.2712E+00  0.000E+00  0.000E+00  0.000E+00  1.06987E+03  1.555E+00  8.218E+00  5.547E-02  1.777E+00
   1    4    8     3     4    1.2712E+00  2.2567E-01   1.0456E+00  0.000E+00  0.000E+00  0.000E+00  1.06682E+03  1.364E+00  7.455E+00  6.709E-02  1.682E+00
   1    5    8     3     5    1.0456E+00  1.5790E-01   8.8768E-01  0.000E+00  0.000E+00  0.000E+00  1.06362E+03  1.164E+00  6.655E+00  4.991E-02  1.582E+00
   1    6    8     3     6    8.8768E-01  5.5980E-02   8.3170E-01  0.000E+00  0.000E+00  0.000E+00  1.06158E+03  1.036E+00  6.145E+00  1.844E-02  1.518E+00
   1    5   10     4     1    1.0000E+01  9.0919E-02   9.9091E+00  0.000E+00  0.000E+00  0.000E+00  1.07836E+03  6.368E-01  1.000E+01  2.500E-02  1.212E+00
   1    5    9     4     2    9.9091E+00  1.8158E-01   9.7275E+00  0.000E+00  0.000E+00  0.000E+00  1.07154E+03  6.315E-01  1.000E+01  5.000E-02  1.211E+00
   1    6    8     4     3    9.7275E+00  1.2689E-01   9.6006E+00  0.000E+00  0.000E+00  0.000E+00  1.06381E+03  6.256E-01  1.000E+01  3.500E-02  1.209E+00
   1    6    8     5     1    1.0432E+01  2.2686E-01   1.0205E+01  0.000E+00  0.000E+00  0.000E+00  1.05868E+03  6.790E-01  1.542E+01  6.166E-02  1.226E+00
   1    7    7     5     2    1.0205E+01  2.7894E-01   9.9265E+00  0.000E+00  0.000E+00  0.000E+00  1.05417E+03  6.732E-01  1.519E+01  7.594E-02  1.224E+00
   1    8    7     5     3    9.9265E+00  1.9221E-01   9.7343E+00  0.000E+00  0.000E+00  0.000E+00  1.04992E+03  6.676E-01  1.497E+01  5.241E-02  1.223E+00
   1    8    6     5     4    9.7343E+00  1.3577E-01   9.5985E+00  0.000E+00  0.000E+00  0.000E+00  1.04691E+03  6.637E-01  1.482E+01  3.706E-02  1.221E+00
   1    9    6     6     1    9.5985E+00  2.2097E-01   9.3776E+00  0.000E+00  0.000E+00  0.000E+00  1.04341E+03  6.828E-01  1.200E+01  6.000E-02  1.228E+00
   1   10    7     6     2    9.3776E+00  2.2039E-01   9.1572E+00  0.000E+00  0.000E+00  0.000E+00  1.03885E+03  6.732E-01  1.200E+01  6.000E-02  1.224E+00
   1   11    7     6     3    9.1572E+00  2.1981E-01   8.9374E+00  0.000E+00  0.000E+00  0.000E+00  1.03430E+03  6.636E-01  1.200E+01  6.000E-02  1.221E+00
   1   12    7     6     4    8.9374E+00  2.1923E-01   8.7181E+00  0.000E+00  0.000E+00  0.000E+00  1.02974E+03  6.539E-01  1.200E+01  6.000E-02  1.218E+00
   1   13    7     6     5    8.7181E+00  3.9503E-04   8.7177E+00  0.000E+00  0.000E+00  0.000E+00  1.02656E+03  6.490E-01  1.200E+01  2.400E-02  5.487E-03
   1   14    9     7     1    1.5000E+02  1.3915E+00   1.4861E+02  0.000E+00  0.000E+00  0.000E+00  1.03987E+03  2.288E+00  5.529E+01  5.593E-01  8.293E-01
   1   13    8     7     2    1.4861E+02  2.0083E+00   1.4660E+02  0.000E+00  0.000E+00  0.000E+00  1.03478E+03  2.279E+00  5.525E+01  6.147E-01  1.089E+00
   1   13    7     7     3    1.4660E+02  1.7567E+00   1.4484E+02  0.000E+00  0.000E+00  0.000E+00  1.02969E+03  2.268E+00  5.521E+01  5.584E-01  1.049E+00
   1   13    6     8     1    1.5356E+02  1.1071E+00   1.5245E+02  0.000E+00  0.000E+00  0.000E+00  1.02471E+03  2.838E+00  4.115E+01  4.193E-01  8.801E-01
   1   13    5     8     2    1.5245E+02  3.5983E-01   1.5209E+02  0.000E+00  0.000E+00  0.000E+00  1.01846E+03  2.833E+00  4.108E+01  4.186E-01  2.866E-01
   1   13    4     8     3    1.5209E+02 -1.8112E+00   1.5391E+02  0.000E+00  0.000E+00  0.000E+00  1.01221E+03  2.838E+00  4.115E+01  4.193E+00 -1.440E-01
   1   13    3     8     4    1.5391E+02 -3.3451E+00   1.5725E+02  0.000E+00  0.000E+00  0.000E+00  1.00598E+03  2.856E+00  4.141E+01  4.220E+00 -2.643E-01
   1   13    2     8     5    1.5725E+02 -2.5316E+00   1.5978E+02  0.000E+00  0.000E+00  0.000E+00  9.99751E+02  2.876E+00  4.170E+01  4.249E+00 -1.986E-01
   1   13    1     8     6    1.5978E+02 -1.9814E+00   1.6176E+02  0.000E+00  0.000E+00  0.000E+00  9.94766E+02  2.891E+00  4.192E+01  2.563E+00 -2.577E-01
   1    8    6     9     1    1.8402E+01  0.0000E+00   1.8402E+01  0.000E+00  0.000E+00  0.000E+00  1.08202E+03  3.267E+00  4.000E+00  0.000E+00  2.089E+00
   1    8    5     9     2    1.8402E+01  0.0000E+00   1.8402E+01  0.000E+00  0.000E+00  0.000E+00  1.08152E+03  3.267E+00  4.000E+00  0.000E+00  2.089E+00





UNSATURATED ZONE PACKAGE VOLUMETRIC BUDGET FOR  TIME STEP    30 STRESS PERIOD   33
  ------------------------------------------------------------------------------



     CUMULATIVE VOLUMES      L**3       RATES FOR THIS TIME STEP      L**3/T
     ------------------                 ------------------------

           IN:                                      IN:
           ---                                      ---
        INFILTRATION =  1716156189.6134          INFILTRATION =         203.5260

          OUT:                                     OUT:
          ----                                     ----
              UZF ET =  1243260532.1681                UZF ET =          49.5675
        UZF RECHARGE =    42842098.5303          UZF RECHARGE =       0.0000E+00

            IN - OUT =   430053558.9151              IN - OUT =         153.9585

          STORAGE:                                 STORAGE:
          --------                                 --------
      STORAGE CHANGE =   430053762.4147        STORAGE CHANGE =         153.9585

 PERCENT DISCREPANCY IS DIFFERENCE BETWEEN IN-OUT MINUS CHANGE IN STORAGE
 DIVIDED BY THE AVERAGE OF IN AND OUT TIMES 100

 PERCENT DISCREPANCY =          -0.00     PERCENT DISCREPANCY =          -0.00






1
  VOLUMETRIC BUDGET FOR AGRICULTURAL FIELDS AT  END OF TIME STEP   30, STRESS PERIOD  33
  ------------------------------------------------------------------------------

     CUMULATIVE VOLUMES      L**3       RATES FOR THIS TIME STEP      L**3/T
     ------------------                 ------------------------

           IN:                                      IN:
           ---                                      ---
               AG WELLS  =  1086541952.0000                 AG WELLS  =         184.2763
      DIVERSION SEGMENTS =   558322432.0000        DIVERSION SEGMENTS =          18.4018
       IRRIGATION PONDS  =           0.0000         IRRIGATION PONDS  =           0.0000
           GW IRRIGATION =           0.0000             GW IRRIGATION =           0.0000
           SW IRRIGATION =           0.0000             SW IRRIGATION =           0.0000
        SYSTEM LOSSES GW =           0.0000          SYSTEM LOSSES GW =           0.0000
        SYSTEM LOSSES SW =           0.0000          SYSTEM LOSSES SW =           0.0000

                TOTAL IN =  1644864384.0000                  TOTAL IN =         202.6781

          OUT:                                     OUT:
          ----                                     ----
               AG WELLS  =           0.0000                 AG WELLS  =           0.0000
      DIVERSION SEGMENTS =           0.0000        DIVERSION SEGMENTS =           0.0000
       IRRIGATION PONDS  =           0.0000         IRRIGATION PONDS  =           0.0000
           GW IRRIGATION =  1086541952.0000             GW IRRIGATION =         184.2763
           SW IRRIGATION =   558332928.0000             SW IRRIGATION =          18.4022
        SYSTEM LOSSES GW =           0.0000          SYSTEM LOSSES GW =           0.0000
        SYSTEM LOSSES SW =           0.0000          SYSTEM LOSSES SW =           0.0000

               TOTAL OUT =  1644874880.0000                 TOTAL OUT =         202.6785

                IN - OUT =      -10496.0000                  IN - OUT =      -3.8147E-04

     PERCENT DISCREPANCY =          -0.00         PERCENT DISCREPANCY =          -0.00



1
  VOLUMETRIC BUDGET FOR ENTIRE MODEL AT END OF TIME STEP   30, STRESS PERIOD  33
  ------------------------------------------------------------------------------

     CUMULATIVE VOLUMES      L**3       RATES FOR THIS TIME STEP      L**3/T
     ------------------                 ------------------------

           IN:                                      IN:
           ---                                      ---
             STORAGE     =  1521154048.0000               STORAGE     =         181.7188
       CONSTANT HEAD     =           0.0000         CONSTANT HEAD     =           0.0000
     HEAD DEP BOUNDS     =    24297364.0000       HEAD DEP BOUNDS     =           0.2896
      STREAM LEAKAGE     =  1005286912.0000        STREAM LEAKAGE     =          12.3782
        UZF RECHARGE     =    42842100.0000          UZF RECHARGE     =           0.0000
               GW ET     =           0.0000                 GW ET     =           0.0000
     SURFACE LEAKAGE     =           0.0000       SURFACE LEAKAGE     =           0.0000
           AG WELLS      =           0.0000             AG WELLS      =           0.0000

                TOTAL IN =  2593580544.0000                  TOTAL IN =         194.3866

          OUT:                                     OUT:
          ----                                     ----
             STORAGE     =   644520896.0000               STORAGE     =           0.1545
       CONSTANT HEAD     =           0.0000         CONSTANT HEAD     =           0.0000
     HEAD DEP BOUNDS     =    24249116.0000       HEAD DEP BOUNDS     =           0.2865
      STREAM LEAKAGE     =   838279168.0000        STREAM LEAKAGE     =           9.6692
        UZF RECHARGE     =           0.0000          UZF RECHARGE     =           0.0000
               GW ET     =           0.0000                 GW ET     =           0.0000
     SURFACE LEAKAGE     =           0.0000       SURFACE LEAKAGE     =           0.0000
           AG WELLS      =  1086541952.0000             AG WELLS      =         184.2763

               TOTAL OUT =  2593591296.0000                 TOTAL OUT =         194.3866

                IN - OUT =      -10752.0000                  IN - OUT =       7.6294E-05

     PERCENT DISCREPANCY =          -0.00         PERCENT DISCREPANCY =           0.00






         TIME SUMMARY AT END OF TIME STEP   30 IN STRESS PERIOD   33
                    SECONDS     MINUTES      HOURS       DAYS        YEARS
                    -----------------------------------------------------------
   TIME STEP LENGTH  87667.      1461.1      24.352      1.0147     2.77799E-03
 STRESS PERIOD TIME 2.63000E+06  43833.      730.56      30.440     8.33397E-02
         TOTAL TIME 8.42463E+07 1.40410E+06  23402.      975.07      2.6696    
1
1
                            STRESS PERIOD NO.   34, LENGTH =   2630000.    
                            -----------------------------------------------

                              NUMBER OF TIME STEPS =    30

                               MULTIPLIER FOR DELT =     1.000

                            INITIAL TIME STEP SIZE =   87666.66    

 REUSING NON-PARAMETER GHB CELLS FROM LAST STRESS PERIOD

      2 GHB CELLS

 REUSING STREAM SEGMENT DATA FROM LAST STRESS PERIOD



            AREAL INFILTRATION RATE
 READING ON UNIT   19 WITH FORMAT: (FREE)              

            1           2           3           4           5           6           7           8           9          10
 ........................................................................................................................
   1   1.0000E-10  2.0000E-10   0.000       0.000       0.000       0.000       0.000       0.000       0.000       0.000    
   2   2.0000E-10  1.0000E-10  2.0000E-10   0.000       0.000      8.0000E-10  8.0000E-10  5.0000E-10   0.000       0.000    
   3    0.000      5.0000E-10  1.0000E-10  1.0000E-10  8.0000E-10  8.0000E-10  5.0000E-10  5.0000E-10   0.000       0.000    
   4   8.0000E-10  5.0000E-10  1.0000E-10  1.0000E-10  1.0000E-10  1.0000E-10  1.0000E-10  1.0000E-10  2.0000E-10   0.000    
   5   8.0000E-10  5.0000E-10  1.0000E-10  1.0000E-10  1.0000E-10  1.0000E-10  1.0000E-10  1.0000E-10  1.0000E-10  1.0000E-10
   6   8.0000E-10  5.0000E-10  5.0000E-10  2.0000E-10  2.0000E-10  1.0000E-10  1.0000E-10  1.0000E-10  1.0000E-10  5.0000E-10
   7   8.0000E-10  5.0000E-10  5.0000E-10  2.0000E-10  2.0000E-10  1.0000E-10  1.0000E-10  2.0000E-10  2.0000E-10   0.000    
   8    0.000      5.0000E-10  5.0000E-10  2.0000E-10  2.0000E-10  1.0000E-10  1.0000E-10  2.0000E-10  5.0000E-10   0.000    
   9    0.000      5.0000E-10  5.0000E-10  2.0000E-10  2.0000E-10  1.0000E-10  1.0000E-10  2.0000E-10  5.0000E-10   0.000    
  10    0.000      5.0000E-10  5.0000E-10  2.0000E-10  2.0000E-10  1.0000E-10  1.0000E-10  2.0000E-10  5.0000E-10  8.0000E-10
  11    0.000      1.0000E-10  1.0000E-10  1.0000E-10  1.0000E-10  1.0000E-10  1.0000E-10  2.0000E-10  5.0000E-10   0.000    
  12   1.0000E-10  1.0000E-10  1.0000E-10  1.0000E-10  1.0000E-10  1.0000E-10  1.0000E-10  1.0000E-10  2.0000E-10   0.000    
  13   1.0000E-10  1.0000E-10  2.0000E-10  2.0000E-10  2.0000E-10  2.0000E-10  2.0000E-10  1.0000E-10  1.0000E-10   0.000    
  14    0.000      2.0000E-10  5.0000E-10  5.0000E-10  5.0000E-10  5.0000E-10  5.0000E-10  2.0000E-10  1.0000E-10   0.000    
  15    0.000       0.000      8.0000E-10  8.0000E-10  8.0000E-10  8.0000E-10   0.000       0.000       0.000       0.000    

                  ET RATE =  7.500000E-08

 USING ET EXTINCTION DEPTH FROM PREVIOUS STRESS PERIOD. CURRENT PERIOD IS:      34

 USING EXTINCTION WATER CONTENT FROM PREVIOUS STRESS PERIOD. CURRENT PERIOD IS:      34

 USING AIR ENTRY PRESSURE FROM PREVIOUS STRESS PERIOD. CURRENT PERIOD IS:      34

 USING ROOT PRESSURE HEAD FROM PREVIOUS STRESS PERIOD. CURRENT PERIOD IS:      34

 USING ROOT ACTIVITY FROM PREVIOUS STRESS PERIOD. CURRENT PERIOD IS:      34

 PROCESSING AG STRESS PERIOD DATA

 READING AG STRESS PERIOD DATA

 READING IRRIGATION SEGMENT

 READING IRRIGATION WELL

 READING SUPPLEMENTAL WELL

 NO IRRPOND OR REUSING IRRPOND DATA FROM LAST STRESS PERIOD

 END PROCESSING AG STRESS PERIOD DATA OPTIONS
 
 SOLVING FOR HEAD 
                                                   Max.-Head-Change                         Max.-Flux-Residual
  Residual-Control   Outer-Iter.   Inner-Iter.     Column Row Layer    Maximum-Head-Change  Column Row Layer    Maximum-Flux-Residual          L2-NORM 
          0                 1           2             4    6     1       0.1460065831E+00       4    6    1         0.7835110333E+01      0.1458188643E+02
          0                 2           2             4    6     1      -0.1420248900E-01       4    6    1        -0.7835129924E+00      0.1458161336E+01
          0                 3           2             4    6     1       0.9671365568E-03       4    6    1         0.5484591462E-01      0.1020708035E+00
          0                 4           1             4    6     1      -0.3848327827E-04       4    6    1        -0.2243201120E-02      0.4174659059E-02

    ------------------------------------------------
       NWT REQUIRED            4 OUTER ITERATIONS 
       AND A TOTAL OF          7 INNER ITERATIONS.
    ------------------------------------------------

 NO OUTPUT CONTROL FOR STRESS PERIOD   34   TIME STEP    1
 
 SOLVING FOR HEAD 
                                                   Max.-Head-Change                         Max.-Flux-Residual
  Residual-Control   Outer-Iter.   Inner-Iter.     Column Row Layer    Maximum-Head-Change  Column Row Layer    Maximum-Flux-Residual          L2-NORM 
          0                 1           2             4    6     1       0.1414304455E+00       4    6    1         0.7585996206E+01      0.1421025735E+02
          0                 2           2             4    6     1      -0.1375735709E-01       4    6    1        -0.7586016783E+00      0.1420938546E+01
          0                 3           2             4    6     1       0.9368247111E-03       4    6    1         0.5310212104E-01      0.9945950517E-01
          0                 4           1             4    6     1      -0.3727714201E-04       4    6    1        -0.2171879869E-02      0.4067511362E-02

    ------------------------------------------------
       NWT REQUIRED            4 OUTER ITERATIONS 
       AND A TOTAL OF          7 INNER ITERATIONS.
    ------------------------------------------------

 NO OUTPUT CONTROL FOR STRESS PERIOD   34   TIME STEP    2
 
 SOLVING FOR HEAD 
                                                   Max.-Head-Change                         Max.-Flux-Residual
  Residual-Control   Outer-Iter.   Inner-Iter.     Column Row Layer    Maximum-Head-Change  Column Row Layer    Maximum-Flux-Residual          L2-NORM 
          0                 1           2             4    6     1       0.1370612765E+00       4    6    1         0.7348248728E+01      0.1384340375E+02
          0                 2           2             4    6     1      -0.1333235712E-01       4    6    1        -0.7348270011E+00      0.1384294741E+01
          0                 3           2             4    6     1       0.9078837787E-03       4    6    1         0.5143789226E-01      0.9689797627E-01
          0                 4           1             4    6     1      -0.3612555527E-04       4    6    1        -0.2103812818E-02      0.3962954541E-02

    ------------------------------------------------
       NWT REQUIRED            4 OUTER ITERATIONS 
       AND A TOTAL OF          7 INNER ITERATIONS.
    ------------------------------------------------

 NO OUTPUT CONTROL FOR STRESS PERIOD   34   TIME STEP    3
 
 SOLVING FOR HEAD 
                                                   Max.-Head-Change                         Max.-Flux-Residual
  Residual-Control   Outer-Iter.   Inner-Iter.     Column Row Layer    Maximum-Head-Change  Column Row Layer    Maximum-Flux-Residual          L2-NORM 
          0                 1           2             4    6     1       0.1328877005E+00       4    6    1         0.7121239209E+01      0.1349430935E+02
          0                 2           2             4    6     1      -0.3539663851E-01       4    6    1        -0.1940843659E+01      0.4109077268E+01
          0                 3           2             4    6     1       0.2429668403E-01       4    6    1         0.1364575697E+01      0.3173054809E+01
          0                 4           2             4    7     1       0.3302099666E-02       4    7    1         0.1921900970E+00      0.2283283271E+00
          0                 5           1             4    7     1       0.5983170819E-03       4    7    1         0.3436662318E-01      0.3440689344E-01
          0                 6           1             4    7     1       0.1084060498E-03       4    7    1         0.6230996621E-02      0.6231362614E-02
          0                 7           1             4    7     1       0.1964069224E-04       4    7    1         0.1128966951E-02      0.1129007567E-02

    ------------------------------------------------
       NWT REQUIRED            7 OUTER ITERATIONS 
       AND A TOTAL OF         11 INNER ITERATIONS.
    ------------------------------------------------

 NO OUTPUT CONTROL FOR STRESS PERIOD   34   TIME STEP    4
 
 SOLVING FOR HEAD 
                                                   Max.-Head-Change                         Max.-Flux-Residual
  Residual-Control   Outer-Iter.   Inner-Iter.     Column Row Layer    Maximum-Head-Change  Column Row Layer    Maximum-Flux-Residual          L2-NORM 
          0                 1           2             4    6     1       0.1289997552E+00       4    6    1         0.6909639032E+01      0.1317486203E+02
          0                 2           2             4    6     1      -0.2161435555E-01       4    6    1        -0.1204274730E+01      0.2282203455E+01
          0                 3           2             4    7     1      -0.1381218251E-01       4    7    1        -0.7423564495E+00      0.1786823164E+01
          0                 4           2             5    7     1       0.2410082126E-01       5    8    1         0.1346141593E+01      0.3228726377E+01
          0                 5           2             4    7     1       0.3870604770E-02       4    7    1         0.2248708004E+00      0.2563723324E+00
          0                 6           1             4    7     1       0.7013184610E-03       4    7    1         0.4028843025E-01      0.4032351233E-01
          0                 7           1             4    7     1       0.1270669559E-03       4    7    1         0.7303736209E-02      0.7304126644E-02
          0                 8           1             4    7     1       0.2302136802E-04       4    7    1         0.1323304586E-02      0.1323349554E-02

    ------------------------------------------------
       NWT REQUIRED            8 OUTER ITERATIONS 
       AND A TOTAL OF         13 INNER ITERATIONS.
    ------------------------------------------------

 NO OUTPUT CONTROL FOR STRESS PERIOD   34   TIME STEP    5
 
 SOLVING FOR HEAD 
                                                   Max.-Head-Change                         Max.-Flux-Residual
  Residual-Control   Outer-Iter.   Inner-Iter.     Column Row Layer    Maximum-Head-Change  Column Row Layer    Maximum-Flux-Residual          L2-NORM 
          0                 1           2             4    6     1       0.1255833409E+00       4    6    1         0.6725071140E+01      0.1284664640E+02
          0                 2           2             4    7     1       0.1528737520E-01       4    7    1         0.8516481704E+00      0.1354793065E+01
          0                 3           2             5    7     1      -0.3391392598E-01       5    6    1        -0.1864549267E+01      0.4502476692E+01
          0                 4           2             4    8     1       0.3572169335E-01       5    8    1         0.1998518632E+01      0.4571285146E+01
          0                 5           2             4    7     1       0.5226567749E-02       4    7    1         0.3037959199E+00      0.4526073196E+00
          0                 6           2             4    7     1       0.9474965632E-03       4    7    1         0.5440047080E-01      0.7511126802E-01
          0                 7           2             4    7     1       0.1717575025E-03       4    7    1         0.9867038083E-02      0.1351011419E-01
          0                 8           1             4    7     1       0.3113373460E-04       4    7    1         0.1788636813E-02      0.2430179228E-02

    ------------------------------------------------
       NWT REQUIRED            8 OUTER ITERATIONS 
       AND A TOTAL OF         15 INNER ITERATIONS.
    ------------------------------------------------

 NO OUTPUT CONTROL FOR STRESS PERIOD   34   TIME STEP    6
 
 SOLVING FOR HEAD 
                                                   Max.-Head-Change                         Max.-Flux-Residual
  Residual-Control   Outer-Iter.   Inner-Iter.     Column Row Layer    Maximum-Head-Change  Column Row Layer    Maximum-Flux-Residual          L2-NORM 
          0                 1           2             4    6     1       0.1224234089E+00       4    6    1         0.6554352905E+01      0.1253917616E+02
          0                 2           2             4    7     1       0.1520713762E-01       4    7    1         0.8304609435E+00      0.1364327470E+01
          0                 3           2             4    8     1      -0.3439628618E-01       4    8    1        -0.1868499541E+01      0.4477870494E+01
          0                 4           2             4    6     1       0.3548227069E-01       5    8    1         0.1998564630E+01      0.4241748897E+01
          0                 5           2             4    7     1       0.5356099415E-02       4    7    1         0.3012842991E+00      0.5864400335E+00
          0                 6           2             4    7     1       0.1001100350E-02       4    7    1         0.5609773883E-01      0.1057143352E+00
          0                 7           2             4    7     1       0.1870459815E-03       4    7    1         0.1048578782E-01      0.1952853818E-01
          0                 8           1             4    7     1       0.3493549292E-04       4    7    1         0.1958985365E-02      0.3607835881E-02

    ------------------------------------------------
       NWT REQUIRED            8 OUTER ITERATIONS 
       AND A TOTAL OF         15 INNER ITERATIONS.
    ------------------------------------------------

 NO OUTPUT CONTROL FOR STRESS PERIOD   34   TIME STEP    7
 
 SOLVING FOR HEAD 
                                                   Max.-Head-Change                         Max.-Flux-Residual
  Residual-Control   Outer-Iter.   Inner-Iter.     Column Row Layer    Maximum-Head-Change  Column Row Layer    Maximum-Flux-Residual          L2-NORM 
          0                 1           2             4    6     1       0.1195500161E+00       4    6    1         0.6399888958E+01      0.1224362290E+02
          0                 2           2             4    7     1       0.1508049045E-01       4    7    1         0.8124071009E+00      0.1524229928E+01
          0                 3           2             5    8     1      -0.3351422210E-01       5    8    1        -0.1846594816E+01      0.4433576559E+01
          0                 4           2             4    6     1       0.3548361959E-01       5    8    1         0.1998583192E+01      0.4230704026E+01
          0                 5           2             4    7     1       0.5364827058E-02       4    7    1         0.3012730063E+00      0.6058709089E+00
          0                 6           2             4    7     1       0.1004670376E-02       4    7    1         0.5620962813E-01      0.1093797416E+00
          0                 7           2             4    7     1       0.1880546059E-03       4    7    1         0.1052678810E-01      0.2020752025E-01
          0                 8           1             4    7     1       0.3518408929E-04       4    7    1         0.1970184898E-02      0.3733657235E-02

    ------------------------------------------------
       NWT REQUIRED            8 OUTER ITERATIONS 
       AND A TOTAL OF         15 INNER ITERATIONS.
    ------------------------------------------------

 NO OUTPUT CONTROL FOR STRESS PERIOD   34   TIME STEP    8
 
 SOLVING FOR HEAD 
                                                   Max.-Head-Change                         Max.-Flux-Residual
  Residual-Control   Outer-Iter.   Inner-Iter.     Column Row Layer    Maximum-Head-Change  Column Row Layer    Maximum-Flux-Residual          L2-NORM 
          0                 1           2             4    6     1       0.1167635061E+00       4    6    1         0.6249810953E+01      0.1193305355E+02
          0                 2           2             4    7     1       0.1478195131E-01       4    7    1         0.7963803889E+00      0.1486537403E+01
          0                 3           2             5    8     1      -0.3352281573E-01       5    8    1        -0.1847033602E+01      0.4437665658E+01
          0                 4           2             4    6     1       0.3548475556E-01       5    8    1         0.1998618539E+01      0.4230246319E+01
          0                 5           2             4    7     1       0.5363582338E-02       4    7    1         0.3012052049E+00      0.6057471952E+00
          0                 6           2             4    7     1       0.1004431007E-02       4    7    1         0.5619651508E-01      0.1093560054E+00
          0                 7           2             4    7     1       0.1880086389E-03       4    7    1         0.1052426767E-01      0.2020308286E-01
          0                 8           1             4    7     1       0.3517527417E-04       4    7    1         0.1969701055E-02      0.3732827329E-02

    ------------------------------------------------
       NWT REQUIRED            8 OUTER ITERATIONS 
       AND A TOTAL OF         15 INNER ITERATIONS.
    ------------------------------------------------

 NO OUTPUT CONTROL FOR STRESS PERIOD   34   TIME STEP    9
 
 SOLVING FOR HEAD 
                                                   Max.-Head-Change                         Max.-Flux-Residual
  Residual-Control   Outer-Iter.   Inner-Iter.     Column Row Layer    Maximum-Head-Change  Column Row Layer    Maximum-Flux-Residual          L2-NORM 
          0                 1           2             4    6     1       0.1140568609E+00       4    6    1         0.6104029402E+01      0.1163529515E+02
          0                 2           2             4    7     1       0.1448789568E-01       4    7    1         0.7805895417E+00      0.1450309006E+01
          0                 3           2             4    6     1      -0.3353727704E-01       5    8    1        -0.1847459032E+01      0.4441611332E+01
          0                 4           2             4    6     1       0.3548585956E-01       5    8    1         0.1998652850E+01      0.4229805679E+01
          0                 5           2             4    7     1       0.5362358290E-02       4    7    1         0.3011384989E+00      0.6056279082E+00
          0                 6           2             4    7     1       0.1004195722E-02       4    7    1         0.5618362097E-01      0.1093331023E+00
          0                 7           2             4    7     1       0.1879634749E-03       4    7    1         0.1052179043E-01      0.2019879851E-01
          0                 8           1             4    7     1       0.3516661586E-04       4    7    1         0.1969225680E-02      0.3732025606E-02

    ------------------------------------------------
       NWT REQUIRED            8 OUTER ITERATIONS 
       AND A TOTAL OF         15 INNER ITERATIONS.
    ------------------------------------------------

 NO OUTPUT CONTROL FOR STRESS PERIOD   34   TIME STEP   10
 
 SOLVING FOR HEAD 
                                                   Max.-Head-Change                         Max.-Flux-Residual
  Residual-Control   Outer-Iter.   Inner-Iter.     Column Row Layer    Maximum-Head-Change  Column Row Layer    Maximum-Flux-Residual          L2-NORM 
          0                 1           2             4    6     1       0.1114280270E+00       4    6    1         0.5962436594E+01      0.1134961275E+02
          0                 2           2             4    7     1       0.1419846386E-01       4    7    1         0.7650425920E+00      0.1415463455E+01
          0                 3           2             4    6     1      -0.3355627421E-01       5    8    1        -0.1847871794E+01      0.4445420372E+01
          0                 4           2             4    6     1       0.3548693445E-01       5    8    1         0.1998686292E+01      0.4229381493E+01
          0                 5           2             4    7     1       0.5361155619E-02       4    7    1         0.3010729311E+00      0.6055128778E+00
          0                 6           2             4    7     1       0.1003964640E-02       4    7    1         0.5617095307E-01      0.1093109993E+00
          0                 7           2             4    7     1       0.1879191344E-03       4    7    1         0.1051935762E-01      0.2019466125E-01
          0                 8           1             4    7     1       0.3515811861E-04       4    7    1         0.1968759007E-02      0.3731250959E-02

    ------------------------------------------------
       NWT REQUIRED            8 OUTER ITERATIONS 
       AND A TOTAL OF         15 INNER ITERATIONS.
    ------------------------------------------------

 NO OUTPUT CONTROL FOR STRESS PERIOD   34   TIME STEP   11
 
 SOLVING FOR HEAD 
                                                   Max.-Head-Change                         Max.-Flux-Residual
  Residual-Control   Outer-Iter.   Inner-Iter.     Column Row Layer    Maximum-Head-Change  Column Row Layer    Maximum-Flux-Residual          L2-NORM 
          0                 1           2             4    6     1       0.1088746628E+00       4    6    1         0.5824909321E+01      0.1107531274E+02
          0                 2           2             4    7     1       0.1401044699E-01       4    7    1         0.7497453966E+00      0.1269649134E+01
          0                 3           2             4    6     1      -0.3479370219E-01       4    6    1        -0.1896322781E+01      0.4476689898E+01
          0                 4           2             5    8     1       0.3509557019E-01       5    8    1         0.1998719026E+01      0.4082679447E+01
          0                 5           2             4    7     1       0.5411007128E-02       4    7    1         0.2999755921E+00      0.6325097935E+00
          0                 6           2             4    7     1       0.1024389257E-02       4    7    1         0.5682386632E-01      0.1166400482E+00
          0                 7           2             4    7     1       0.1937910616E-03       4    7    1         0.1075571270E-01      0.2174011818E-01
          0                 8           1             4    7     1       0.3663570224E-04       4    7    1         0.2034385042E-02      0.4053030267E-02

    ------------------------------------------------
       NWT REQUIRED            8 OUTER ITERATIONS 
       AND A TOTAL OF         15 INNER ITERATIONS.
    ------------------------------------------------

 NO OUTPUT CONTROL FOR STRESS PERIOD   34   TIME STEP   12
 
 SOLVING FOR HEAD 
                                                   Max.-Head-Change                         Max.-Flux-Residual
  Residual-Control   Outer-Iter.   Inner-Iter.     Column Row Layer    Maximum-Head-Change  Column Row Layer    Maximum-Flux-Residual          L2-NORM 
          0                 1           2             4    6     1       0.1067360338E+00       4    6    1         0.5709739633E+01      0.1082469447E+02
          0                 2           2             4    6     1       0.1488837211E-01       4    6    1         0.7919940163E+00      0.1458226269E+01
          0                 3           2             5    8     1      -0.3355458096E-01       5    8    1        -0.1848661224E+01      0.4420426829E+01
          0                 4           2             5    8     1       0.3509604506E-01       5    8    1         0.1998750818E+01      0.4048779222E+01
          0                 5           2             4    7     1       0.5430520930E-02       4    7    1         0.2998196464E+00      0.6677304630E+00
          0                 6           2             4    7     1       0.1032856195E-02       4    7    1         0.5707940961E-01      0.1234242723E+00
          0                 7           2             4    7     1       0.1962186609E-03       4    7    1         0.1085336931E-01      0.2303208397E-01
          0                 8           1             4    7     1       0.3723768467E-04       4    7    1         0.2061386180E-02      0.4298709035E-02

    ------------------------------------------------
       NWT REQUIRED            8 OUTER ITERATIONS 
       AND A TOTAL OF         15 INNER ITERATIONS.
    ------------------------------------------------

 NO OUTPUT CONTROL FOR STRESS PERIOD   34   TIME STEP   13
 
 SOLVING FOR HEAD 
                                                   Max.-Head-Change                         Max.-Flux-Residual
  Residual-Control   Outer-Iter.   Inner-Iter.     Column Row Layer    Maximum-Head-Change  Column Row Layer    Maximum-Flux-Residual          L2-NORM 
          0                 1           2             4    6     1       0.1029748633E+00       4    6    1         0.5505291724E+01      0.1054786787E+02
          0                 2           2             4    6     1       0.1437214951E-01       4    6    1         0.7644106087E+00      0.1421711770E+01
          0                 3           2             5    8     1      -0.3356195494E-01       5    8    1        -0.1849038690E+01      0.4424817116E+01
          0                 4           2             5    8     1       0.3509649292E-01       5    8    1         0.1998781718E+01      0.4048135091E+01
          0                 5           2             4    7     1       0.5429422867E-02       4    7    1         0.2997601884E+00      0.6675897324E+00
          0                 6           2             4    7     1       0.1032642537E-02       4    7    1         0.5706782048E-01      0.1233975655E+00
          0                 7           2             4    7     1       0.1961771725E-03       4    7    1         0.1085111528E-01      0.2302706290E-01
          0                 8           1             4    7     1       0.3722964351E-04       4    7    1         0.2060948653E-02      0.4297764902E-02

    ------------------------------------------------
       NWT REQUIRED            8 OUTER ITERATIONS 
       AND A TOTAL OF         15 INNER ITERATIONS.
    ------------------------------------------------

 NO OUTPUT CONTROL FOR STRESS PERIOD   34   TIME STEP   14
 
 SOLVING FOR HEAD 
                                                   Max.-Head-Change                         Max.-Flux-Residual
  Residual-Control   Outer-Iter.   Inner-Iter.     Column Row Layer    Maximum-Head-Change  Column Row Layer    Maximum-Flux-Residual          L2-NORM 
          0                 1           2             4    6     1       0.9941299594E-01       4    6    1         0.5311803753E+01      0.1028321199E+02
          0                 2           2             4    6     1       0.1388282571E-01       4    6    1         0.7382761899E+00      0.1386668566E+01
          0                 3           2             5    8     1      -0.3356911244E-01       5    8    1        -0.1849405182E+01      0.4429059790E+01
          0                 4           2             5    8     1       0.3509692957E-01       5    8    1         0.1998811863E+01      0.4047513384E+01
          0                 5           2             4    7     1       0.5428329534E-02       4    7    1         0.2997008952E+00      0.6674538041E+00
          0                 6           2             4    7     1       0.1032430156E-02       4    7    1         0.5705628496E-01      0.1233717585E+00
          0                 7           2             4    7     1       0.1961359928E-03       4    7    1         0.1084887534E-01      0.2302220903E-01
          0                 8           1             4    7     1       0.3722167275E-04       4    7    1         0.2060514495E-02      0.4296851776E-02

    ------------------------------------------------
       NWT REQUIRED            8 OUTER ITERATIONS 
       AND A TOTAL OF         15 INNER ITERATIONS.
    ------------------------------------------------

 NO OUTPUT CONTROL FOR STRESS PERIOD   34   TIME STEP   15
 
 SOLVING FOR HEAD 
                                                   Max.-Head-Change                         Max.-Flux-Residual
  Residual-Control   Outer-Iter.   Inner-Iter.     Column Row Layer    Maximum-Head-Change  Column Row Layer    Maximum-Flux-Residual          L2-NORM 
          0                 1           2             4    6     1       0.9603708507E-01       4    6    1         0.5128535964E+01      0.1002995519E+02
          0                 2           2             4    6     1       0.1341862493E-01       4    6    1         0.7134943091E+00      0.1353009533E+01
          0                 3           2             5    8     1      -0.3357606185E-01       5    8    1        -0.1849761089E+01      0.4433161151E+01
          0                 4           2             5    8     1       0.3509735532E-01       5    8    1         0.1998841281E+01      0.4046913133E+01
          0                 5           2             4    7     1       0.5427243115E-02       4    7    1         0.2996418965E+00      0.6673224812E+00
          0                 6           2             4    7     1       0.1032219433E-02       4    7    1         0.5704482570E-01      0.1233468133E+00
          0                 7           2             4    7     1       0.1960951888E-03       4    7    1         0.1084665347E-01      0.2301751531E-01
          0                 8           1             4    7     1       0.3721378354E-04       4    7    1         0.2060084391E-02      0.4295970662E-02

    ------------------------------------------------
       NWT REQUIRED            8 OUTER ITERATIONS 
       AND A TOTAL OF         15 INNER ITERATIONS.
    ------------------------------------------------

 NO OUTPUT CONTROL FOR STRESS PERIOD   34   TIME STEP   16
 
 SOLVING FOR HEAD 
                                                   Max.-Head-Change                         Max.-Flux-Residual
  Residual-Control   Outer-Iter.   Inner-Iter.     Column Row Layer    Maximum-Head-Change  Column Row Layer    Maximum-Flux-Residual          L2-NORM 
          0                 1           2             4    6     1       0.9283495914E-01       4    6    1         0.4954814152E+01      0.9787391444E+01
          0                 2           2             4    7     1       0.1303739755E-01       4    6    1         0.6899769649E+00      0.1320655122E+01
          0                 3           2             5    8     1      -0.3358280908E-01       5    8    1        -0.1850106684E+01      0.4437126969E+01
          0                 4           2             5    8     1       0.3509776828E-01       5    8    1         0.1998869871E+01      0.4046333139E+01
          0                 5           2             4    7     1       0.5426165193E-02       4    7    1         0.2995832876E+00      0.6671955179E+00
          0                 6           2             4    7     1       0.1032010638E-02       4    7    1         0.5703345899E-01      0.1233226858E+00
          0                 7           2             4    7     1       0.1960548057E-03       4    7    1         0.1084445241E-01      0.2301297312E-01
          0                 8           1             4    7     1       0.3720598426E-04       4    7    1         0.2059658817E-02      0.4295113402E-02

    ------------------------------------------------
       NWT REQUIRED            8 OUTER ITERATIONS 
       AND A TOTAL OF         15 INNER ITERATIONS.
    ------------------------------------------------

 NO OUTPUT CONTROL FOR STRESS PERIOD   34   TIME STEP   17
 
 SOLVING FOR HEAD 
                                                   Max.-Head-Change                         Max.-Flux-Residual
  Residual-Control   Outer-Iter.   Inner-Iter.     Column Row Layer    Maximum-Head-Change  Column Row Layer    Maximum-Flux-Residual          L2-NORM 
          0                 1           2             4    7     1       0.8983465106E-01       4    6    1         0.4790009511E+01      0.9554871094E+01
          0                 2           2             4    7     1       0.1279889682E-01       4    7    1         0.6737149668E+00      0.1289531880E+01
          0                 3           2             5    8     1      -0.3358936112E-01       5    8    1        -0.1850442299E+01      0.4440963037E+01
          0                 4           2             5    8     1       0.3509816875E-01       5    8    1         0.1998897655E+01      0.4045772546E+01
          0                 5           2             4    7     1       0.5425097433E-02       4    7    1         0.2995251678E+00      0.6670727357E+00
          0                 6           2             4    7     1       0.1031804060E-02       4    7    1         0.5702220205E-01      0.1232993415E+00
          0                 7           2             4    7     1       0.1960148945E-03       4    7    1         0.1084227517E-01      0.2300857666E-01
          0                 8           1             4    7     1       0.3719828309E-04       4    7    1         0.2059238267E-02      0.4294285333E-02

    ------------------------------------------------
       NWT REQUIRED            8 OUTER ITERATIONS 
       AND A TOTAL OF         15 INNER ITERATIONS.
    ------------------------------------------------

 NO OUTPUT CONTROL FOR STRESS PERIOD   34   TIME STEP   18
 
 SOLVING FOR HEAD 
                                                   Max.-Head-Change                         Max.-Flux-Residual
  Residual-Control   Outer-Iter.   Inner-Iter.     Column Row Layer    Maximum-Head-Change  Column Row Layer    Maximum-Flux-Residual          L2-NORM 
          0                 1           2             5    8     1       0.1296096274E+00       5    8    1         0.7064529332E+01      0.1141356274E+02
          0                 2           2             5    8     1       0.1829717346E-01       5    8    1         0.9943353120E+00      0.1592831215E+01
          0                 3           2             4    8     1      -0.3318308638E-01       5    6    1        -0.1810874857E+01      0.4389920906E+01
          0                 4           2             4    7     1       0.2848276584E-01       5    8    1         0.1577787735E+01      0.3855753273E+01
          0                 5           2             4    7     1       0.5426006656E-02       5    8    1         0.3012581300E+00      0.7263291412E+00
          0                 6           2             4    7     1       0.1032932610E-02       5    8    1         0.5749367716E-01      0.1368557581E+00
          0                 7           2             4    7     1       0.1965074732E-03       5    8    1         0.1096649497E-01      0.2579033847E-01
          0                 8           1             4    7     1       0.3736127322E-04       5    8    1         0.2090736527E-02      0.4860816434E-02

    ------------------------------------------------
       NWT REQUIRED            8 OUTER ITERATIONS 
       AND A TOTAL OF         15 INNER ITERATIONS.
    ------------------------------------------------

 NO OUTPUT CONTROL FOR STRESS PERIOD   34   TIME STEP   19
 
 SOLVING FOR HEAD 
                                                   Max.-Head-Change                         Max.-Flux-Residual
  Residual-Control   Outer-Iter.   Inner-Iter.     Column Row Layer    Maximum-Head-Change  Column Row Layer    Maximum-Flux-Residual          L2-NORM 
          0                 1           2             4    7     1       0.8668480013E-01       4    7    1         0.4567952811E+01      0.9089271903E+01
          0                 2           2             4    7     1       0.1235390264E-01       4    7    1         0.6501248075E+00      0.1255716475E+01
          0                 3           2             4    8     1      -0.3328286451E-01       5    8    1        -0.1820833052E+01      0.4432878740E+01
          0                 4           2             4    7     1       0.2847637278E-01       4    6    1         0.1575870460E+01      0.3848475720E+01
          0                 5           2             4    7     1       0.5424655206E-02       4    7    1         0.2993869357E+00      0.7249284941E+00
          0                 6           2             4    7     1       0.1032647021E-02       4    7    1         0.5702221184E-01      0.1365866610E+00
          0                 7           2             4    7     1       0.1964472903E-03       5    8    1         0.1087276961E-01      0.2573871216E-01
          0                 8           1             4    7     1       0.3734864385E-04       5    8    1         0.2073411611E-02      0.4850924503E-02

    ------------------------------------------------
       NWT REQUIRED            8 OUTER ITERATIONS 
       AND A TOTAL OF         15 INNER ITERATIONS.
    ------------------------------------------------

 NO OUTPUT CONTROL FOR STRESS PERIOD   34   TIME STEP   20
 
 SOLVING FOR HEAD 
                                                   Max.-Head-Change                         Max.-Flux-Residual
  Residual-Control   Outer-Iter.   Inner-Iter.     Column Row Layer    Maximum-Head-Change  Column Row Layer    Maximum-Flux-Residual          L2-NORM 
          0                 1           2             4    7     1       0.8512690902E-01       4    7    1         0.4486691486E+01      0.8881611244E+01
          0                 2           2             4    7     1       0.1212744481E-01       4    7    1         0.6383573552E+00      0.1227307634E+01
          0                 3           2             4    8     1      -0.3330598729E-01       5    8    1        -0.1821989585E+01      0.4436727927E+01
          0                 4           2             4    7     1       0.2847116836E-01       4    6    1         0.1575443990E+01      0.3847842598E+01
          0                 5           2             4    7     1       0.5423647713E-02       4    7    1         0.2993320591E+00      0.7248134001E+00
          0                 6           2             4    7     1       0.1032452241E-02       4    7    1         0.5701159176E-01      0.1365648971E+00
          0                 7           2             4    7     1       0.1964096792E-03       5    8    1         0.1087147770E-01      0.2573460641E-01
          0                 8           1             4    7     1       0.3734138989E-04       5    8    1         0.2073167016E-02      0.4850149688E-02

    ------------------------------------------------
       NWT REQUIRED            8 OUTER ITERATIONS 
       AND A TOTAL OF         15 INNER ITERATIONS.
    ------------------------------------------------

 NO OUTPUT CONTROL FOR STRESS PERIOD   34   TIME STEP   21
 
 SOLVING FOR HEAD 
                                                   Max.-Head-Change                         Max.-Flux-Residual
  Residual-Control   Outer-Iter.   Inner-Iter.     Column Row Layer    Maximum-Head-Change  Column Row Layer    Maximum-Flux-Residual          L2-NORM 
          0                 1           2             4    7     1       0.8357838009E-01       4    7    1         0.4405802478E+01      0.8682042776E+01
          0                 2           2             4    7     1       0.1190288177E-01       4    7    1         0.6266722543E+00      0.1199916009E+01
          0                 3           2             4    8     1      -0.3332847417E-01       5    8    1        -0.1823091857E+01      0.4440452376E+01
          0                 4           2             4    7     1       0.2846602988E-01       4    6    1         0.1575026776E+01      0.3847227476E+01
          0                 5           2             4    7     1       0.5422653936E-02       4    7    1         0.2992778876E+00      0.7247049848E+00
          0                 6           2             4    7     1       0.1032260277E-02       4    7    1         0.5700111799E-01      0.1365443410E+00
          0                 7           2             4    7     1       0.1963726407E-03       5    8    1         0.1087024562E-01      0.2573072622E-01
          0                 8           1             4    7     1       0.3733425108E-04       5    8    1         0.2072933573E-02      0.4849416911E-02

    ------------------------------------------------
       NWT REQUIRED            8 OUTER ITERATIONS 
       AND A TOTAL OF         15 INNER ITERATIONS.
    ------------------------------------------------

 NO OUTPUT CONTROL FOR STRESS PERIOD   34   TIME STEP   22
 
 SOLVING FOR HEAD 
                                                   Max.-Head-Change                         Max.-Flux-Residual
  Residual-Control   Outer-Iter.   Inner-Iter.     Column Row Layer    Maximum-Head-Change  Column Row Layer    Maximum-Flux-Residual          L2-NORM 
          0                 1           2             4    7     1       0.8204145417E-01       4    7    1         0.4325415423E+01      0.8490099944E+01
          0                 2           2             4    7     1       0.1168048116E-01       4    7    1         0.6150851503E+00      0.1173488261E+01
          0                 3           2             4    8     1      -0.3335034151E-01       5    8    1        -0.1824138831E+01      0.4444056903E+01
          0                 4           2             4    7     1       0.2846095437E-01       4    6    1         0.1574639501E+01      0.3846629724E+01
          0                 5           2             4    7     1       0.5421673213E-02       4    7    1         0.2992243893E+00      0.7246017778E+00
          0                 6           2             4    7     1       0.1032070987E-02       4    7    1         0.5699078337E-01      0.1365247483E+00
          0                 7           2             4    7     1       0.1963361439E-03       5    8    1         0.1086945742E-01      0.2572702853E-01
          0                 8           1             4    7     1       0.3732722125E-04       5    8    1         0.2072784513E-02      0.4848718714E-02

    ------------------------------------------------
       NWT REQUIRED            8 OUTER ITERATIONS 
       AND A TOTAL OF         15 INNER ITERATIONS.
    ------------------------------------------------

 NO OUTPUT CONTROL FOR STRESS PERIOD   34   TIME STEP   23
 
 SOLVING FOR HEAD 
                                                   Max.-Head-Change                         Max.-Flux-Residual
  Residual-Control   Outer-Iter.   Inner-Iter.     Column Row Layer    Maximum-Head-Change  Column Row Layer    Maximum-Flux-Residual          L2-NORM 
          0                 1           2             4    8     1       0.1049607344E+00       4    8    1         0.5579399641E+01      0.1031325670E+02
          0                 2           2             4    8     1       0.4721307696E-01       4    8    1         0.2525026970E+01      0.3342262986E+01
          0                 3           2             5    6     1      -0.3305076512E-01       5    6    1        -0.1817354844E+01      0.3831614087E+01
          0                 4           2             4    7     1       0.2851840770E-01       5    6    1         0.1574529054E+01      0.3762122579E+01
          0                 5           2             5    8     1       0.1170500289E-01       5    8    1         0.6697075669E+00      0.1049500768E+01
          0                 6           2             5    8     1       0.5468791030E-02       5    8    1         0.3164045591E+00      0.3522143589E+00
          0                 7           2             5    8     1       0.2541320752E-02       5    8    1         0.1476834587E+00      0.1507644475E+00
          0                 8           1             5    8     1       0.1178361503E-02       5    8    1         0.6859966244E-01      0.6888575217E-01
          0                 9           1             5    8     1       0.5458969192E-03       5    8    1         0.3180268209E-01      0.3183597675E-01
          0                10           1             5    8     1       0.2528033738E-03       5    8    1         0.1473191331E-01      0.1473762629E-01
                                                   Max.-Head-Change                         Max.-Flux-Residual
  Residual-Control   Outer-Iter.   Inner-Iter.     Column Row Layer    Maximum-Head-Change  Column Row Layer    Maximum-Flux-Residual          L2-NORM 
          0                11           1             5    8     1       0.1170542721E-03       5    8    1         0.6821990762E-02      0.6823498562E-02
          0                12           1             5    8     1       0.5419525036E-04       5    8    1         0.3158653235E-02      0.3159190133E-02

    ------------------------------------------------
       NWT REQUIRED           12 OUTER ITERATIONS 
       AND A TOTAL OF         19 INNER ITERATIONS.
    ------------------------------------------------

 NO OUTPUT CONTROL FOR STRESS PERIOD   34   TIME STEP   24
 
 SOLVING FOR HEAD 
                                                   Max.-Head-Change                         Max.-Flux-Residual
  Residual-Control   Outer-Iter.   Inner-Iter.     Column Row Layer    Maximum-Head-Change  Column Row Layer    Maximum-Flux-Residual          L2-NORM 
          0                 1           2             5    8     1       0.3493401821E+00       5    8    1         0.1915267753E+02      0.2120385818E+02
          0                 2           2             5    8     1       0.6148655082E-01       5    8    1         0.3347940930E+01      0.4346709355E+01
          0                 3           2             4    6     1      -0.3294709542E-01       5    6    1        -0.1809544762E+01      0.3948508521E+01
          0                 4           2             5    8     1       0.2884113313E-01       5    8    1         0.1634838906E+01      0.3860748850E+01
          0                 5           2             5    7     1       0.8771260692E-02       5    7    1         0.4975903067E+00      0.8363434014E+00
          0                 6           2             5    7     1       0.1670310721E-02       5    7    1         0.9474587776E-01      0.1596440125E+00
          0                 7           2             5    7     1       0.3181019562E-03       5    7    1         0.1804194706E-01      0.3048114923E-01
          0                 8           1             5    7     1       0.6058540418E-04       5    7    1         0.3435893257E-02      0.5821208562E-02

    ------------------------------------------------
       NWT REQUIRED            8 OUTER ITERATIONS 
       AND A TOTAL OF         15 INNER ITERATIONS.
    ------------------------------------------------

 NO OUTPUT CONTROL FOR STRESS PERIOD   34   TIME STEP   25
 
 SOLVING FOR HEAD 
                                                   Max.-Head-Change                         Max.-Flux-Residual
  Residual-Control   Outer-Iter.   Inner-Iter.     Column Row Layer    Maximum-Head-Change  Column Row Layer    Maximum-Flux-Residual          L2-NORM 
          0                 1           2             4    7     1       0.8080621854E-01       4    7    1         0.4265394368E+01      0.7944835142E+01
          0                 2           2             4    7     1       0.1148689796E-01       4    7    1         0.6053130289E+00      0.1105707186E+01
          0                 3           2             5    8     1      -0.3366402375E-01       5    8    1        -0.1854873256E+01      0.4458698248E+01
          0                 4           2             5    8     1       0.3180023649E-01       5    8    1         0.1807011518E+01      0.3942632633E+01
          0                 5           2             4    7     1       0.5422685735E-02       5    7    1         0.3041742788E+00      0.6744862109E+00
          0                 6           2             5    7     1       0.1036759284E-02       5    7    1         0.5841742672E-01      0.1280725358E+00
          0                 7           2             5    7     1       0.1989780145E-03       5    7    1         0.1121461889E-01      0.2433358059E-01
          0                 8           1             5    7     1       0.3817529051E-04       5    7    1         0.2152110551E-02      0.4626012408E-02

    ------------------------------------------------
       NWT REQUIRED            8 OUTER ITERATIONS 
       AND A TOTAL OF         15 INNER ITERATIONS.
    ------------------------------------------------

 NO OUTPUT CONTROL FOR STRESS PERIOD   34   TIME STEP   26
 
 SOLVING FOR HEAD 
                                                   Max.-Head-Change                         Max.-Flux-Residual
  Residual-Control   Outer-Iter.   Inner-Iter.     Column Row Layer    Maximum-Head-Change  Column Row Layer    Maximum-Flux-Residual          L2-NORM 
          0                 1           2             5    6     1       0.1257622067E+00       5    6    1         0.6831856593E+01      0.1003146586E+02
          0                 2           2             5    6     1       0.1780861582E-01       5    6    1         0.9671144068E+00      0.1416998029E+01
          0                 3           2             5    8     1      -0.3363614440E-01       5    8    1        -0.1853317900E+01      0.4422985794E+01
          0                 4           2             5    8     1       0.3141579261E-01       5    8    1         0.1784580360E+01      0.3933658986E+01
          0                 5           2             4    7     1       0.5422251346E-02       5    7    1         0.3042488372E+00      0.6818028906E+00
          0                 6           2             5    7     1       0.1040513121E-02       5    7    1         0.5852845291E-01      0.1303246756E+00
          0                 7           2             5    7     1       0.2001758899E-03       5    7    1         0.1125933618E-01      0.2491883089E-01
          0                 8           1             5    7     1       0.3850974364E-04       5    7    1         0.2165999607E-02      0.4765973377E-02

    ------------------------------------------------
       NWT REQUIRED            8 OUTER ITERATIONS 
       AND A TOTAL OF         15 INNER ITERATIONS.
    ------------------------------------------------

 NO OUTPUT CONTROL FOR STRESS PERIOD   34   TIME STEP   27
 
 SOLVING FOR HEAD 
                                                   Max.-Head-Change                         Max.-Flux-Residual
  Residual-Control   Outer-Iter.   Inner-Iter.     Column Row Layer    Maximum-Head-Change  Column Row Layer    Maximum-Flux-Residual          L2-NORM 
          0                 1           2             4    7     1       0.8193021079E-01       4    7    1         0.4331016209E+01      0.7696818479E+01
          0                 2           2             4    7     1       0.3661400756E-01       4    7    1         0.1973399270E+01      0.2162648412E+01
          0                 3           2             5    8     1      -0.3360569844E-01       5    8    1        -0.1851937758E+01      0.4202532368E+01
          0                 4           2             5    8     1       0.3107266955E-01       5    8    1         0.1764569266E+01      0.3849334764E+01
          0                 5           2             4    7     1       0.1207328342E-01       4    7    1         0.6815757342E+00      0.9176008481E+00
          0                 6           2             4    7     1       0.5724939619E-02       4    7    1         0.3267404526E+00      0.3478619407E+00
          0                 7           2             4    7     1       0.2700522178E-02       4    7    1         0.1547862217E+00      0.1566537031E+00
          0                 8           1             4    7     1       0.1271229170E-02       4    7    1         0.7298600849E-01      0.7317870909E-01
          0                 9           1             4    7     1       0.5979137715E-03       4    7    1         0.3435128445E-01      0.3437856479E-01
          0                10           1             4    7     1       0.2811293490E-03       4    7    1         0.1615560930E-01      0.1616153903E-01
                                                   Max.-Head-Change                         Max.-Flux-Residual
  Residual-Control   Outer-Iter.   Inner-Iter.     Column Row Layer    Maximum-Head-Change  Column Row Layer    Maximum-Flux-Residual          L2-NORM 
          0                11           1             4    7     1       0.1321637051E-03       4    7    1         0.7595772028E-02      0.7597643807E-02
          0                12           1             4    7     1       0.6212848340E-04       4    7    1         0.3570795642E-02      0.3571532365E-02

    ------------------------------------------------
       NWT REQUIRED           12 OUTER ITERATIONS 
       AND A TOTAL OF         19 INNER ITERATIONS.
    ------------------------------------------------

 NO OUTPUT CONTROL FOR STRESS PERIOD   34   TIME STEP   28
 
 SOLVING FOR HEAD 
                                                   Max.-Head-Change                         Max.-Flux-Residual
  Residual-Control   Outer-Iter.   Inner-Iter.     Column Row Layer    Maximum-Head-Change  Column Row Layer    Maximum-Flux-Residual          L2-NORM 
          0                 1           2             4    7     1       0.9356029446E-01       4    7    1         0.4965293741E+01      0.8008942536E+01
          0                 2           2             4    7     1       0.1378373925E-01       4    7    1         0.7312187278E+00      0.1142660248E+01
          0                 3           2             5    8     1      -0.3359370899E-01       5    8    1        -0.1850799583E+01      0.4453093518E+01
          0                 4           2             5    8     1       0.3075925154E-01       5    8    1         0.1746308232E+01      0.3906582830E+01
          0                 5           2             4    7     1       0.5570607677E-02       4    7    1         0.3076281321E+00      0.6899518022E+00
          0                 6           2             4    7     1       0.1094591608E-02       4    7    1         0.6051586048E-01      0.1328684496E+00
          0                 7           2             4    7     1       0.2147999955E-03       4    7    1         0.1188759579E-01      0.2559899502E-01
          0                 8           1             4    7     1       0.4210210457E-04       4    7    1         0.2332178570E-02      0.4933994461E-02

    ------------------------------------------------
       NWT REQUIRED            8 OUTER ITERATIONS 
       AND A TOTAL OF         15 INNER ITERATIONS.
    ------------------------------------------------

 NO OUTPUT CONTROL FOR STRESS PERIOD   34   TIME STEP   29
 
 SOLVING FOR HEAD 
                                                   Max.-Head-Change                         Max.-Flux-Residual
  Residual-Control   Outer-Iter.   Inner-Iter.     Column Row Layer    Maximum-Head-Change  Column Row Layer    Maximum-Flux-Residual          L2-NORM 
          0                 1           2             4    8     1       0.2478808952E+00       4    8    1         0.1338822459E+02      0.1497819464E+02
          0                 2           2             4    8     1       0.1096951526E+00       4    8    1         0.5941972583E+01      0.6020753805E+01
          0                 3           2             5    7     1      -0.3332925918E-01       5    8    1        -0.1824727621E+01      0.4130650304E+01
          0                 4           2             4    8     1       0.4098001906E-01       4    8    1         0.2178747811E+01      0.4160867080E+01
          0                 5           2             4    8     1       0.1825645483E-01       4    8    1         0.9831227097E+00      0.1177118362E+01
          0                 6           2             4    8     1       0.8091014628E-02       4    8    1         0.4374667864E+00      0.4555809026E+00
          0                 7           2             4    8     1       0.3578286307E-02       4    8    1         0.1938074978E+00      0.1955326489E+00
          0                 8           2             4    8     1       0.1581072886E-02       4    8    1         0.8569849205E-01      0.8589027691E-01
          0                 9           2             4    8     1       0.6983247387E-03       4    8    1         0.3786342447E-01      0.3789270097E-01
          0                10           2             4    8     1       0.3083817601E-03       4    8    1         0.1672293038E-01      0.1672972260E-01
                                                   Max.-Head-Change                         Max.-Flux-Residual
  Residual-Control   Outer-Iter.   Inner-Iter.     Column Row Layer    Maximum-Head-Change  Column Row Layer    Maximum-Flux-Residual          L2-NORM 
          0                11           2             4    8     1       0.1361719648E-03       4    8    1         0.7384787109E-02      0.7386982599E-02
          0                12           1             4    8     1       0.6012744290E-04       4    8    1         0.3260877994E-02      0.3261724237E-02

    ------------------------------------------------
       NWT REQUIRED           12 OUTER ITERATIONS 
       AND A TOTAL OF         23 INNER ITERATIONS.
    ------------------------------------------------

 NO OUTPUT CONTROL FOR STRESS PERIOD   34   TIME STEP   30



 STREAM LISTING     PERIOD     34   STEP       30

 LAYER ROW COL. STREAM  RCH.  FLOW INTO     FLOW TO   FLOW OUT OF   OVRLND.     DIRECT     STREAM       STREAM     STREAM     STREAM   STREAMBED  STREAMBED
                SEG.NO.  NO.  STRM. RCH.    AQUIFER    STRM. RCH.    RUNOFF     PRECIP       ET          HEAD       DEPTH      WIDTH   CONDCTNC.   GRADIENT

   1    1    1     1     1    1.7624E+01  2.0521E-01   1.7419E+01  0.000E+00  0.000E+00  0.000E+00  1.09411E+03  1.059E+00  1.124E+01  5.056E-02  1.353E+00
   1    2    2     1     2    1.7419E+01  3.1648E-01   1.7103E+01  0.000E+00  0.000E+00  0.000E+00  1.08911E+03  1.054E+00  1.115E+01  7.807E-02  1.351E+00
   1    3    3     1     3    1.7103E+01  2.6863E-01   1.6834E+01  0.000E+00  0.000E+00  0.000E+00  1.08347E+03  1.049E+00  1.106E+01  6.635E-02  1.350E+00
   1    3    4     1     4    1.6834E+01  2.4632E-01   1.6588E+01  0.000E+00  0.000E+00  0.000E+00  1.07845E+03  1.044E+00  1.097E+01  6.091E-02  1.348E+00
   1    4    5     2     1    1.4588E+01  3.0175E-01   1.4286E+01  0.000E+00  0.000E+00  0.000E+00  1.07280E+03  8.686E-01  1.200E+01  7.800E-02  1.290E+00
   1    5    6     2     2    1.4286E+01  2.3154E-01   1.4055E+01  0.000E+00  0.000E+00  0.000E+00  1.06737E+03  8.590E-01  1.200E+01  6.000E-02  1.286E+00
   1    6    6     2     3    1.4055E+01  2.3103E-01   1.3824E+01  0.000E+00  0.000E+00  0.000E+00  1.06264E+03  8.505E-01  1.200E+01  6.000E-02  1.284E+00
   1    7    6     2     4    1.3824E+01  2.3052E-01   1.3593E+01  0.000E+00  0.000E+00  0.000E+00  1.05792E+03  8.420E-01  1.200E+01  6.000E-02  1.281E+00
   1    8    6     2     5    1.3593E+01  2.3001E-01   1.3363E+01  0.000E+00  0.000E+00  0.000E+00  1.05319E+03  8.335E-01  1.200E+01  6.000E-02  1.278E+00
   1    3    5     3     1    2.0000E+00  2.8252E-01   1.7175E+00  0.000E+00  0.000E+00  0.000E+00  1.07555E+03  1.909E+00  9.636E+00  7.227E-02  1.955E+00
   1    3    6     3     2    1.7175E+00  2.4905E-01   1.4684E+00  0.000E+00  0.000E+00  0.000E+00  1.07264E+03  1.727E+00  8.909E+00  6.682E-02  1.864E+00
   1    3    7     3     3    1.4684E+00  1.9718E-01   1.2712E+00  0.000E+00  0.000E+00  0.000E+00  1.06987E+03  1.555E+00  8.218E+00  5.547E-02  1.777E+00
   1    4    8     3     4    1.2712E+00  2.2567E-01   1.0456E+00  0.000E+00  0.000E+00  0.000E+00  1.06682E+03  1.364E+00  7.455E+00  6.709E-02  1.682E+00
   1    5    8     3     5    1.0456E+00  1.5790E-01   8.8768E-01  0.000E+00  0.000E+00  0.000E+00  1.06362E+03  1.164E+00  6.655E+00  4.991E-02  1.582E+00
   1    6    8     3     6    8.8768E-01  5.5980E-02   8.3170E-01  0.000E+00  0.000E+00  0.000E+00  1.06158E+03  1.036E+00  6.145E+00  1.844E-02  1.518E+00
   1    5   10     4     1    1.0000E+01  9.0919E-02   9.9091E+00  0.000E+00  0.000E+00  0.000E+00  1.07836E+03  6.368E-01  1.000E+01  2.500E-02  1.212E+00
   1    5    9     4     2    9.9091E+00  1.8158E-01   9.7275E+00  0.000E+00  0.000E+00  0.000E+00  1.07154E+03  6.315E-01  1.000E+01  5.000E-02  1.211E+00
   1    6    8     4     3    9.7275E+00  1.2689E-01   9.6006E+00  0.000E+00  0.000E+00  0.000E+00  1.06381E+03  6.256E-01  1.000E+01  3.500E-02  1.209E+00
   1    6    8     5     1    1.0432E+01  2.2686E-01   1.0205E+01  0.000E+00  0.000E+00  0.000E+00  1.05868E+03  6.790E-01  1.542E+01  6.166E-02  1.226E+00
   1    7    7     5     2    1.0205E+01  2.7894E-01   9.9265E+00  0.000E+00  0.000E+00  0.000E+00  1.05417E+03  6.732E-01  1.519E+01  7.594E-02  1.224E+00
   1    8    7     5     3    9.9265E+00  1.9221E-01   9.7343E+00  0.000E+00  0.000E+00  0.000E+00  1.04992E+03  6.676E-01  1.497E+01  5.241E-02  1.223E+00
   1    8    6     5     4    9.7343E+00  1.3577E-01   9.5985E+00  0.000E+00  0.000E+00  0.000E+00  1.04691E+03  6.637E-01  1.482E+01  3.706E-02  1.221E+00
   1    9    6     6     1    1.1745E+01  2.2629E-01   1.1519E+01  0.000E+00  0.000E+00  0.000E+00  1.04350E+03  7.716E-01  1.200E+01  6.000E-02  1.257E+00
   1   10    7     6     2    1.1519E+01  2.2575E-01   1.1293E+01  0.000E+00  0.000E+00  0.000E+00  1.03894E+03  7.625E-01  1.200E+01  6.000E-02  1.254E+00
   1   11    7     6     3    1.1293E+01  2.2521E-01   1.1068E+01  0.000E+00  0.000E+00  0.000E+00  1.03439E+03  7.534E-01  1.200E+01  6.000E-02  1.251E+00
   1   12    7     6     4    1.1068E+01  2.2466E-01   1.0843E+01  0.000E+00  0.000E+00  0.000E+00  1.02984E+03  7.443E-01  1.200E+01  6.000E-02  1.248E+00
   1   13    7     6     5    1.0843E+01  2.7505E-03   1.0841E+01  0.000E+00  0.000E+00  0.000E+00  1.02665E+03  7.397E-01  1.200E+01  2.400E-02  3.820E-02
   1   14    9     7     1    1.5000E+02  1.3928E+00   1.4861E+02  0.000E+00  0.000E+00  0.000E+00  1.03987E+03  2.288E+00  5.529E+01  5.593E-01  8.301E-01
   1   13    8     7     2    1.4861E+02  2.0115E+00   1.4660E+02  0.000E+00  0.000E+00  0.000E+00  1.03478E+03  2.279E+00  5.525E+01  6.147E-01  1.091E+00
   1   13    7     7     3    1.4660E+02  1.7608E+00   1.4483E+02  0.000E+00  0.000E+00  0.000E+00  1.02969E+03  2.268E+00  5.521E+01  5.584E-01  1.051E+00
   1   13    6     8     1    1.5568E+02  1.1232E+00   1.5455E+02  0.000E+00  0.000E+00  0.000E+00  1.02473E+03  2.852E+00  4.136E+01  4.215E-01  8.883E-01
   1   13    5     8     2    1.5455E+02  3.7291E-01   1.5418E+02  0.000E+00  0.000E+00  0.000E+00  1.01847E+03  2.847E+00  4.129E+01  4.207E-01  2.955E-01
   1   13    4     8     3    1.5418E+02 -1.7485E+00   1.5593E+02  0.000E+00  0.000E+00  0.000E+00  1.01223E+03  2.852E+00  4.135E+01  4.214E+00 -1.383E-01
   1   13    3     8     4    1.5593E+02 -3.3060E+00   1.5923E+02  0.000E+00  0.000E+00  0.000E+00  1.00599E+03  2.869E+00  4.161E+01  4.240E+00 -2.599E-01
   1   13    2     8     5    1.5923E+02 -2.4973E+00   1.6173E+02  0.000E+00  0.000E+00  0.000E+00  9.99764E+02  2.889E+00  4.189E+01  4.269E+00 -1.950E-01
   1   13    1     8     6    1.6173E+02 -1.9625E+00   1.6369E+02  0.000E+00  0.000E+00  0.000E+00  9.94779E+02  2.904E+00  4.211E+01  2.575E+00 -2.541E-01
   1    8    6     9     1    1.1216E+01  0.0000E+00   1.1216E+01  0.000E+00  0.000E+00  0.000E+00  1.08118E+03  2.428E+00  4.000E+00  0.000E+00  1.809E+00
   1    8    5     9     2    1.1216E+01  0.0000E+00   1.1216E+01  0.000E+00  0.000E+00  0.000E+00  1.08068E+03  2.428E+00  4.000E+00  0.000E+00  1.809E+00





UNSATURATED ZONE PACKAGE VOLUMETRIC BUDGET FOR  TIME STEP    30 STRESS PERIOD   34
  ------------------------------------------------------------------------------



     CUMULATIVE VOLUMES      L**3       RATES FOR THIS TIME STEP      L**3/T
     ------------------                 ------------------------

           IN:                                      IN:
           ---                                      ---
        INFILTRATION =  1745551235.1440          INFILTRATION =          12.0640

          OUT:                                     OUT:
          ----                                     ----
              UZF ET =  1274998057.0445                UZF ET =          12.0675
        UZF RECHARGE =    61665135.9717          UZF RECHARGE =          27.9455

            IN - OUT =   408888042.1278              IN - OUT =         -27.9490

          STORAGE:                                 STORAGE:
          --------                                 --------
      STORAGE CHANGE =   408888293.4072        STORAGE CHANGE =         -27.9490

 PERCENT DISCREPANCY IS DIFFERENCE BETWEEN IN-OUT MINUS CHANGE IN STORAGE
 DIVIDED BY THE AVERAGE OF IN AND OUT TIMES 100

 PERCENT DISCREPANCY =          -0.00     PERCENT DISCREPANCY =           0.00






1
  VOLUMETRIC BUDGET FOR AGRICULTURAL FIELDS AT  END OF TIME STEP   30, STRESS PERIOD  34
  ------------------------------------------------------------------------------

     CUMULATIVE VOLUMES      L**3       RATES FOR THIS TIME STEP      L**3/T
     ------------------                 ------------------------

           IN:                                      IN:
           ---                                      ---
               AG WELLS  =  1086541952.0000                 AG WELLS  =           0.0000
      DIVERSION SEGMENTS =   585488064.0000        DIVERSION SEGMENTS =          11.2162
       IRRIGATION PONDS  =           0.0000         IRRIGATION PONDS  =           0.0000
           GW IRRIGATION =           0.0000             GW IRRIGATION =           0.0000
           SW IRRIGATION =           0.0000             SW IRRIGATION =           0.0000
        SYSTEM LOSSES GW =           0.0000          SYSTEM LOSSES GW =           0.0000
        SYSTEM LOSSES SW =           0.0000          SYSTEM LOSSES SW =           0.0000

                TOTAL IN =  1672029952.0000                  TOTAL IN =          11.2162

          OUT:                                     OUT:
          ----                                     ----
               AG WELLS  =           0.0000                 AG WELLS  =           0.0000
      DIVERSION SEGMENTS =           0.0000        DIVERSION SEGMENTS =           0.0000
       IRRIGATION PONDS  =           0.0000         IRRIGATION PONDS  =           0.0000
           GW IRRIGATION =  1086541952.0000             GW IRRIGATION =           0.0000
           SW IRRIGATION =   585499072.0000             SW IRRIGATION =          11.2165
        SYSTEM LOSSES GW =           0.0000          SYSTEM LOSSES GW =           0.0000
        SYSTEM LOSSES SW =           0.0000          SYSTEM LOSSES SW =           0.0000

               TOTAL OUT =  1672040960.0000                 TOTAL OUT =          11.2165

                IN - OUT =      -11008.0000                  IN - OUT =      -2.2411E-04

     PERCENT DISCREPANCY =          -0.00         PERCENT DISCREPANCY =          -0.00



1
  VOLUMETRIC BUDGET FOR ENTIRE MODEL AT END OF TIME STEP   30, STRESS PERIOD  34
  ------------------------------------------------------------------------------

     CUMULATIVE VOLUMES      L**3       RATES FOR THIS TIME STEP      L**3/T
     ------------------                 ------------------------

           IN:                                      IN:
           ---                                      ---
             STORAGE     =  1574664448.0000               STORAGE     =          14.4958
       CONSTANT HEAD     =           0.0000         CONSTANT HEAD     =           0.0000
     HEAD DEP BOUNDS     =    25059002.0000       HEAD DEP BOUNDS     =           0.2896
      STREAM LEAKAGE     =  1037512000.0000        STREAM LEAKAGE     =          12.2289
        UZF RECHARGE     =    61665136.0000          UZF RECHARGE     =          27.9455
               GW ET     =           0.0000                 GW ET     =           0.0000
     SURFACE LEAKAGE     =           0.0000       SURFACE LEAKAGE     =           0.0000
           AG WELLS      =           0.0000             AG WELLS      =           0.0000

                TOTAL IN =  2698900480.0000                  TOTAL IN =          54.9598

          OUT:                                     OUT:
          ----                                     ----
             STORAGE     =   724148800.0000               STORAGE     =          45.1574
       CONSTANT HEAD     =           0.0000         CONSTANT HEAD     =           0.0000
     HEAD DEP BOUNDS     =    25002984.0000       HEAD DEP BOUNDS     =           0.2866
      STREAM LEAKAGE     =   863213440.0000        STREAM LEAKAGE     =           9.5143
        UZF RECHARGE     =           0.0000          UZF RECHARGE     =           0.0000
               GW ET     =           0.0000                 GW ET     =           0.0000
     SURFACE LEAKAGE     =           0.0000       SURFACE LEAKAGE     =           0.0000
           AG WELLS      =  1086541952.0000             AG WELLS      =           0.0000

               TOTAL OUT =  2698907136.0000                 TOTAL OUT =          54.9583

                IN - OUT =       -6656.0000                  IN - OUT =       1.4915E-03

     PERCENT DISCREPANCY =          -0.00         PERCENT DISCREPANCY =           0.00






         TIME SUMMARY AT END OF TIME STEP   30 IN STRESS PERIOD   34
                    SECONDS     MINUTES      HOURS       DAYS        YEARS
                    -----------------------------------------------------------
   TIME STEP LENGTH  87667.      1461.1      24.352      1.0147     2.77799E-03
 STRESS PERIOD TIME 2.63000E+06  43833.      730.56      30.440     8.33397E-02
         TOTAL TIME 8.68762E+07 1.44794E+06  24132.      1005.5      2.7529    
1
1
                            STRESS PERIOD NO.   35, LENGTH =   2630000.    
                            -----------------------------------------------

                              NUMBER OF TIME STEPS =    30

                               MULTIPLIER FOR DELT =     1.000

                            INITIAL TIME STEP SIZE =   87666.66    

 REUSING NON-PARAMETER GHB CELLS FROM LAST STRESS PERIOD

      2 GHB CELLS

 REUSING STREAM SEGMENT DATA FROM LAST STRESS PERIOD



            AREAL INFILTRATION RATE
 READING ON UNIT   19 WITH FORMAT: (FREE)              

            1           2           3           4           5           6           7           8           9          10
 ........................................................................................................................
   1   1.0000E-10  2.0000E-10   0.000       0.000       0.000       0.000       0.000       0.000       0.000       0.000    
   2   2.0000E-10  1.0000E-10  2.0000E-10   0.000       0.000      8.0000E-10  8.0000E-10  5.0000E-10   0.000       0.000    
   3    0.000      5.0000E-10  1.0000E-10  1.0000E-10  8.0000E-10  8.0000E-10  5.0000E-10  5.0000E-10   0.000       0.000    
   4   8.0000E-10  5.0000E-10  1.0000E-10  1.0000E-10  1.0000E-10  1.0000E-10  1.0000E-10  1.0000E-10  2.0000E-10   0.000    
   5   8.0000E-10  5.0000E-10  1.0000E-10  1.0000E-10  1.0000E-10  1.0000E-10  1.0000E-10  1.0000E-10  1.0000E-10  1.0000E-10
   6   8.0000E-10  5.0000E-10  5.0000E-10  2.0000E-10  2.0000E-10  1.0000E-10  1.0000E-10  1.0000E-10  1.0000E-10  5.0000E-10
   7   8.0000E-10  5.0000E-10  5.0000E-10  2.0000E-10  2.0000E-10  1.0000E-10  1.0000E-10  2.0000E-10  2.0000E-10   0.000    
   8    0.000      5.0000E-10  5.0000E-10  2.0000E-10  2.0000E-10  1.0000E-10  1.0000E-10  2.0000E-10  5.0000E-10   0.000    
   9    0.000      5.0000E-10  5.0000E-10  2.0000E-10  2.0000E-10  1.0000E-10  1.0000E-10  2.0000E-10  5.0000E-10   0.000    
  10    0.000      5.0000E-10  5.0000E-10  2.0000E-10  2.0000E-10  1.0000E-10  1.0000E-10  2.0000E-10  5.0000E-10  8.0000E-10
  11    0.000      1.0000E-10  1.0000E-10  1.0000E-10  1.0000E-10  1.0000E-10  1.0000E-10  2.0000E-10  5.0000E-10   0.000    
  12   1.0000E-10  1.0000E-10  1.0000E-10  1.0000E-10  1.0000E-10  1.0000E-10  1.0000E-10  1.0000E-10  2.0000E-10   0.000    
  13   1.0000E-10  1.0000E-10  2.0000E-10  2.0000E-10  2.0000E-10  2.0000E-10  2.0000E-10  1.0000E-10  1.0000E-10   0.000    
  14    0.000      2.0000E-10  5.0000E-10  5.0000E-10  5.0000E-10  5.0000E-10  5.0000E-10  2.0000E-10  1.0000E-10   0.000    
  15    0.000       0.000      8.0000E-10  8.0000E-10  8.0000E-10  8.0000E-10   0.000       0.000       0.000       0.000    

                  ET RATE =  5.000000E-09

 USING ET EXTINCTION DEPTH FROM PREVIOUS STRESS PERIOD. CURRENT PERIOD IS:      35

 USING EXTINCTION WATER CONTENT FROM PREVIOUS STRESS PERIOD. CURRENT PERIOD IS:      35

 USING AIR ENTRY PRESSURE FROM PREVIOUS STRESS PERIOD. CURRENT PERIOD IS:      35

 USING ROOT PRESSURE HEAD FROM PREVIOUS STRESS PERIOD. CURRENT PERIOD IS:      35

 USING ROOT ACTIVITY FROM PREVIOUS STRESS PERIOD. CURRENT PERIOD IS:      35

 PROCESSING AG STRESS PERIOD DATA

 READING AG STRESS PERIOD DATA

 READING IRRIGATION SEGMENT

 READING IRRIGATION WELL

 READING SUPPLEMENTAL WELL

 NO IRRPOND OR REUSING IRRPOND DATA FROM LAST STRESS PERIOD

 END PROCESSING AG STRESS PERIOD DATA OPTIONS
 
 SOLVING FOR HEAD 
                                                   Max.-Head-Change                         Max.-Flux-Residual
  Residual-Control   Outer-Iter.   Inner-Iter.     Column Row Layer    Maximum-Head-Change  Column Row Layer    Maximum-Flux-Residual          L2-NORM 
          0                 1           2             5    7     1       0.2497066763E+00       5    7    1         0.1366380551E+02      0.1630677360E+02
          0                 2           2             5    7     1       0.1084535069E+00       5    7    1         0.5968020056E+01      0.6122589235E+01
          0                 3           2             5    7     1       0.4696888789E-01       5    7    1         0.2588734271E+01      0.2611480236E+01
          0                 4           2             5    7     1       0.2032161224E-01       5    7    1         0.1120720488E+01      0.1128471815E+01
          0                 5           2             5    7     1       0.8789540664E-02       5    7    1         0.4848258837E+00      0.4881628369E+00
          0                 6           2             5    7     1       0.3801263699E-02       5    7    1         0.2096890286E+00      0.2111837196E+00
          0                 7           2             5    7     1       0.1643898914E-02       5    7    1         0.9068412046E-01      0.9135858346E-01
          0                 8           2             5    7     1       0.7109157036E-03       5    7    1         0.3921719245E-01      0.3952201477E-01
          0                 9           2             5    7     1       0.3074401405E-03       5    7    1         0.1695973326E-01      0.1709752859E-01
          0                10           2             5    7     1       0.1329547042E-03       5    7    1         0.7334347517E-02      0.7396629017E-02
          0                11           1             5    7     1       0.5749736508E-04       5    7    1         0.3171792622E-02      0.3199936092E-02

    ------------------------------------------------
       NWT REQUIRED           11 OUTER ITERATIONS 
       AND A TOTAL OF         21 INNER ITERATIONS.
    ------------------------------------------------

 NO OUTPUT CONTROL FOR STRESS PERIOD   35   TIME STEP    1
 
 SOLVING FOR HEAD 
                                                   Max.-Head-Change                         Max.-Flux-Residual
  Residual-Control   Outer-Iter.   Inner-Iter.     Column Row Layer    Maximum-Head-Change  Column Row Layer    Maximum-Flux-Residual          L2-NORM 
          0                 1           2             5    7     1       0.1106253360E+00       5    7    1         0.5960995146E+01      0.1008762870E+02
          0                 2           2             5    6     1       0.2413415900E-01       5    6    1         0.1305978080E+01      0.1909807324E+01
          0                 3           2             5    6     1       0.8328972067E-02       5    6    1         0.4592828103E+00      0.4762871205E+00
          0                 4           2             5    6     1       0.5829530991E-02       5    6    1         0.3177067536E+00      0.4068208933E+00
          0                 5           2             5    6     1       0.2538980827E-02       5    6    1         0.1394497094E+00      0.1465648512E+00
          0                 6           2             5    6     1       0.1101060824E-02       5    6    1         0.6062789283E-01      0.6121561042E-01
          0                 7           2             5    6     1       0.4768102780E-03       5    6    1         0.2627685296E-01      0.2633192356E-01
          0                 8           2             5    6     1       0.2063802957E-03       5    6    1         0.1137679976E-01      0.1138353187E-01
          0                 9           1             5    6     1       0.8931399140E-04       5    6    1         0.4923955150E-02      0.4925277395E-02

    ------------------------------------------------
       NWT REQUIRED            9 OUTER ITERATIONS 
       AND A TOTAL OF         17 INNER ITERATIONS.
    ------------------------------------------------

 NO OUTPUT CONTROL FOR STRESS PERIOD   35   TIME STEP    2
 
 SOLVING FOR HEAD 
                                                   Max.-Head-Change                         Max.-Flux-Residual
  Residual-Control   Outer-Iter.   Inner-Iter.     Column Row Layer    Maximum-Head-Change  Column Row Layer    Maximum-Flux-Residual          L2-NORM 
          0                 1           2             5    6     1       0.3584431405E+00       5    6    1         0.1969495741E+02      0.2068181882E+02
          0                 2           2             5    6     1       0.1097481931E+00       5    6    1         0.6042256668E+01      0.6115140128E+01
          0                 3           2             5    6     1       0.1297339928E-01       5    6    1         0.7168261521E+00      0.7311955135E+00
          0                 4           2             5    6     1       0.4012265269E-02       5    6    1         0.2176728942E+00      0.3299397895E+00
          0                 5           2             5    6     1       0.5690472824E-03       5    6    1         0.3066161923E-01      0.5753107563E-01
          0                 6           1             4    6     1       0.8220889332E-04       4    6    1         0.4604652516E-02      0.1045835234E-01

    ------------------------------------------------
       NWT REQUIRED            6 OUTER ITERATIONS 
       AND A TOTAL OF         11 INNER ITERATIONS.
    ------------------------------------------------

 NO OUTPUT CONTROL FOR STRESS PERIOD   35   TIME STEP    3
 
 SOLVING FOR HEAD 
                                                   Max.-Head-Change                         Max.-Flux-Residual
  Residual-Control   Outer-Iter.   Inner-Iter.     Column Row Layer    Maximum-Head-Change  Column Row Layer    Maximum-Flux-Residual          L2-NORM 
          0                 1           2             4    7     1       0.2991167122E+00       4    7    1         0.1618909137E+02      0.1697444206E+02
          0                 2           2             4    7     1       0.1319726204E+00       4    7    1         0.7166840971E+01      0.7206658543E+01
          0                 3           2             4    7     1       0.5583513084E-01       4    7    1         0.3040521155E+01      0.3044708350E+01
          0                 4           2             4    7     1       0.2683397416E-01       4    7    1         0.1455134444E+01      0.1477885253E+01
          0                 5           2             4    7     1       0.1182574394E-01       4    7    1         0.6424326590E+00      0.6447654265E+00
          0                 6           2             4    7     1       0.5206592050E-02       4    7    1         0.2830459859E+00      0.2833821770E+00
          0                 7           1             4    7     1       0.2291477238E-02       4    7    1         0.1246063784E+00      0.1246799174E+00
          0                 8           1             4    7     1       0.1008353038E-02       4    7    1         0.5483862635E-01      0.5486129858E-01
          0                 9           1             4    7     1       0.4436937881E-03       4    7    1         0.2413112650E-01      0.2413962857E-01
          0                10           1             4    7     1       0.1952285135E-03       4    7    1         0.1061807932E-01      0.1062157167E-01
          0                11           1             4    7     1       0.8590108140E-04       4    7    1         0.4672022457E-02      0.4673514632E-02

    ------------------------------------------------
       NWT REQUIRED           11 OUTER ITERATIONS 
       AND A TOTAL OF         17 INNER ITERATIONS.
    ------------------------------------------------

 NO OUTPUT CONTROL FOR STRESS PERIOD   35   TIME STEP    4
 
 SOLVING FOR HEAD 
                                                   Max.-Head-Change                         Max.-Flux-Residual
  Residual-Control   Outer-Iter.   Inner-Iter.     Column Row Layer    Maximum-Head-Change  Column Row Layer    Maximum-Flux-Residual          L2-NORM 
          0                 1           2             4    7     1       0.8896221707E-01       4    7    1         0.4736714893E+01      0.8324898146E+01
          0                 2           2             5    8     1       0.3502167661E-01       5    8    1         0.1924573963E+01      0.2174868754E+01
          0                 3           2             5    8     1       0.1295774484E-01       5    8    1         0.7169951971E+00      0.7325342841E+00
          0                 4           2             5    8     1       0.7820268988E-02       5    8    1         0.4281456565E+00      0.4942574636E+00
          0                 5           2             5    8     1       0.3395635909E-02       5    8    1         0.1866630206E+00      0.1930680991E+00
          0                 6           2             5    8     1       0.1471211853E-02       5    8    1         0.8102004115E-01      0.8167024968E-01
          0                 7           1             5    8     1       0.6368132310E-03       5    8    1         0.3509721130E-01      0.3517589378E-01
          0                 8           1             5    8     1       0.2755274337E-03       5    8    1         0.1519067599E-01      0.1520381068E-01
          0                 9           1             5    8     1       0.1191890016E-03       5    8    1         0.6572272448E-02      0.6575497317E-02
          0                10           1             5    8     1       0.5155507947E-04       5    8    1         0.2843024259E-02      0.2844081749E-02

    ------------------------------------------------
       NWT REQUIRED           10 OUTER ITERATIONS 
       AND A TOTAL OF         16 INNER ITERATIONS.
    ------------------------------------------------

 NO OUTPUT CONTROL FOR STRESS PERIOD   35   TIME STEP    5
 
 SOLVING FOR HEAD 
                                                   Max.-Head-Change                         Max.-Flux-Residual
  Residual-Control   Outer-Iter.   Inner-Iter.     Column Row Layer    Maximum-Head-Change  Column Row Layer    Maximum-Flux-Residual          L2-NORM 
          0                 1           2             5    8     1       0.3360074082E+00       5    8    1         0.1846847596E+02      0.1938352811E+02
          0                 2           2             5    8     1       0.1455401793E+00       5    8    1         0.8022033998E+01      0.8068855057E+01
          0                 3           2             5    8     1       0.6074619161E-01       5    8    1         0.3353291343E+01      0.3356175782E+01
          0                 4           2             5    8     1       0.2848624996E-01       5    8    1         0.1568189018E+01      0.1589236309E+01
          0                 5           2             5    8     1       0.1233334880E-01       5    8    1         0.6798859333E+00      0.6816929255E+00
          0                 6           2             5    8     1       0.5335709047E-02       5    8    1         0.2942702599E+00      0.2944737571E+00
          0                 7           1             5    8     1       0.2307763029E-02       5    8    1         0.1272951463E+00      0.1273310435E+00
          0                 8           1             5    8     1       0.9980494166E-03       5    8    1         0.5505483584E-01      0.5506503675E-01
          0                 9           1             5    8     1       0.4316199893E-03       5    8    1         0.2380963817E-01      0.2381344011E-01
          0                10           1             5    8     1       0.1866573997E-03       5    8    1         0.1029672864E-01      0.1029829373E-01
          0                11           1             5    8     1       0.8072112988E-04       5    8    1         0.4452893408E-02      0.4453559123E-02

    ------------------------------------------------
       NWT REQUIRED           11 OUTER ITERATIONS 
       AND A TOTAL OF         17 INNER ITERATIONS.
    ------------------------------------------------

 NO OUTPUT CONTROL FOR STRESS PERIOD   35   TIME STEP    6
 
 SOLVING FOR HEAD 
                                                   Max.-Head-Change                         Max.-Flux-Residual
  Residual-Control   Outer-Iter.   Inner-Iter.     Column Row Layer    Maximum-Head-Change  Column Row Layer    Maximum-Flux-Residual          L2-NORM 
          0                 1           2             4    6     1       0.2522147502E+00       4    6    1         0.1369018781E+02      0.1912592235E+02
          0                 2           2             4    6     1       0.1109145132E+00       4    6    1         0.6039052401E+01      0.6329092379E+01
          0                 3           2             4    6     1       0.4645894041E-01       4    6    1         0.2534579805E+01      0.2540210152E+01
          0                 4           2             4    6     1       0.2263455239E-01       4    6    1         0.1230498813E+01      0.1259345665E+01
          0                 5           2             4    6     1       0.9947747951E-02       4    6    1         0.5415383048E+00      0.5442175953E+00
          0                 6           2             4    6     1       0.4368801045E-02       4    6    1         0.2379729927E+00      0.2383120602E+00
          0                 7           2             4    6     1       0.1918061906E-02       4    6    1         0.1045059303E+00      0.1045712070E+00
          0                 8           2             4    6     1       0.8419828758E-03       4    6    1         0.4588079005E-01      0.4589925751E-01
          0                 9           2             4    6     1       0.3695880152E-03       4    6    1         0.2014034794E-01      0.2014696353E-01
          0                10           2             4    6     1       0.1622262607E-03       4    6    1         0.8840556729E-02      0.8843212364E-02
          0                11           1             4    6     1       0.7120647560E-04       4    6    1         0.3880449514E-02      0.3881570653E-02

    ------------------------------------------------
       NWT REQUIRED           11 OUTER ITERATIONS 
       AND A TOTAL OF         21 INNER ITERATIONS.
    ------------------------------------------------

 NO OUTPUT CONTROL FOR STRESS PERIOD   35   TIME STEP    7
 
 SOLVING FOR HEAD 
                                                   Max.-Head-Change                         Max.-Flux-Residual
  Residual-Control   Outer-Iter.   Inner-Iter.     Column Row Layer    Maximum-Head-Change  Column Row Layer    Maximum-Flux-Residual          L2-NORM 
          0                 1           2             4    6     1       0.1365543684E+00       4    6    1         0.7368805869E+01      0.9446563954E+01
          0                 2           2             4    6     1       0.1950437001E-01       4    6    1         0.1055032019E+01      0.1316004388E+01
          0                 3           2             5    8     1      -0.2236163179E-02       5    8    1        -0.1284666373E+00      0.1933373491E+00
          0                 4           2             4    6     1       0.2321733661E-02       5    8    1         0.1245707668E+00      0.2782013469E+00
          0                 5           2             4    7     1       0.3965690475E-03       4    7    1         0.2196680030E-01      0.4583514827E-01
          0                 6           1             4    7     1       0.7773142979E-04       4    7    1         0.4320787152E-02      0.8542153262E-02

    ------------------------------------------------
       NWT REQUIRED            6 OUTER ITERATIONS 
       AND A TOTAL OF         11 INNER ITERATIONS.
    ------------------------------------------------

 NO OUTPUT CONTROL FOR STRESS PERIOD   35   TIME STEP    8
 
 SOLVING FOR HEAD 
                                                   Max.-Head-Change                         Max.-Flux-Residual
  Residual-Control   Outer-Iter.   Inner-Iter.     Column Row Layer    Maximum-Head-Change  Column Row Layer    Maximum-Flux-Residual          L2-NORM 
          0                 1           2             4    7     1       0.5592402580E-01       4    7    1         0.2950073940E+01      0.6077094477E+01
          0                 2           2             4    7     1       0.8312358053E-02       4    7    1         0.4388575812E+00      0.8161798808E+00
          0                 3           2             5    8     1      -0.2266386251E-02       5    8    1        -0.1301414562E+00      0.2112536107E+00
          0                 4           2             5    8     1       0.2136438488E-02       5    8    1         0.1246817669E+00      0.2699628337E+00
          0                 5           2             4    7     1       0.3907545812E-03       4    7    1         0.2159779511E-01      0.4653644424E-01
          0                 6           1             4    7     1       0.7671848518E-04       4    7    1         0.4244155038E-02      0.8967624042E-02

    ------------------------------------------------
       NWT REQUIRED            6 OUTER ITERATIONS 
       AND A TOTAL OF         11 INNER ITERATIONS.
    ------------------------------------------------

 NO OUTPUT CONTROL FOR STRESS PERIOD   35   TIME STEP    9
 
 SOLVING FOR HEAD 
                                                   Max.-Head-Change                         Max.-Flux-Residual
  Residual-Control   Outer-Iter.   Inner-Iter.     Column Row Layer    Maximum-Head-Change  Column Row Layer    Maximum-Flux-Residual          L2-NORM 
          0                 1           2             4    7     1       0.5480654454E-01       4    7    1         0.2892191467E+01      0.5873621381E+01
          0                 2           2             4    7     1       0.8141052387E-02       4    7    1         0.4299816216E+00      0.7920205439E+00
          0                 3           2             5    8     1      -0.2243849957E-02       5    8    1        -0.1287511974E+00      0.2123799374E+00
          0                 4           2             5    8     1       0.2136016789E-02       5    8    1         0.1246640124E+00      0.2696141564E+00
          0                 5           2             4    7     1       0.3900229721E-03       4    7    1         0.2155745038E-01      0.4646219998E-01
          0                 6           1             4    7     1       0.7657470979E-04       4    7    1         0.4236214852E-02      0.8953355365E-02

    ------------------------------------------------
       NWT REQUIRED            6 OUTER ITERATIONS 
       AND A TOTAL OF         11 INNER ITERATIONS.
    ------------------------------------------------

 NO OUTPUT CONTROL FOR STRESS PERIOD   35   TIME STEP   10
 
 SOLVING FOR HEAD 
                                                   Max.-Head-Change                         Max.-Flux-Residual
  Residual-Control   Outer-Iter.   Inner-Iter.     Column Row Layer    Maximum-Head-Change  Column Row Layer    Maximum-Flux-Residual          L2-NORM 
          0                 1           2             4    8     1       0.3102049568E+00       4    8    1         0.1680335479E+02      0.1761046757E+02
          0                 2           2             4    8     1       0.1370751790E+00       4    8    1         0.7430928214E+01      0.7466903991E+01
          0                 3           2             4    8     1       0.5826250124E-01       4    8    1         0.3163481980E+01      0.3169282680E+01
          0                 4           2             4    8     1       0.2797603275E-01       4    8    1         0.1514519250E+01      0.1535982163E+01
          0                 5           2             4    8     1       0.1235466155E-01       4    8    1         0.6700712305E+00      0.6714117099E+00
          0                 6           2             4    8     1       0.5454153696E-02       4    8    1         0.2958641891E+00      0.2959952199E+00
          0                 7           2             4    8     1       0.2407542887E-02       4    8    1         0.1306079789E+00      0.1306262269E+00
          0                 8           2             4    8     1       0.1062681644E-02       4    8    1         0.5765133226E-01      0.5765566148E-01
          0                 9           2             4    8     1       0.4690578565E-03       4    8    1         0.2544697994E-01      0.2544849855E-01
          0                10           2             4    8     1       0.2070368073E-03       4    8    1         0.1123204183E-01      0.1123266527E-01
          0                11           1             4    8     1       0.9138353511E-04       4    8    1         0.4957692520E-02      0.4957961360E-02

    ------------------------------------------------
       NWT REQUIRED           11 OUTER ITERATIONS 
       AND A TOTAL OF         21 INNER ITERATIONS.
    ------------------------------------------------

 NO OUTPUT CONTROL FOR STRESS PERIOD   35   TIME STEP   11
 
 SOLVING FOR HEAD 
                                                   Max.-Head-Change                         Max.-Flux-Residual
  Residual-Control   Outer-Iter.   Inner-Iter.     Column Row Layer    Maximum-Head-Change  Column Row Layer    Maximum-Flux-Residual          L2-NORM 
          0                 1           2             4    8     1       0.3363832992E+00       4    8    1         0.1820026234E+02      0.2572733195E+02
          0                 2           2             5    7     1       0.1381805791E+00       5    7    1         0.7612871201E+01      0.1038971842E+02
          0                 3           2             5    7     1       0.5752492089E-01       5    7    1         0.3177701626E+01      0.3300881004E+01
          0                 4           2             5    7     1       0.2712538227E-01       5    7    1         0.1491452151E+01      0.1531492694E+01
          0                 5           2             5    7     1       0.1174038230E-01       5    7    1         0.6472552619E+00      0.6497583220E+00
          0                 6           2             5    7     1       0.5077431162E-02       5    7    1         0.2800663033E+00      0.2803413576E+00
          0                 7           2             5    7     1       0.2195204084E-02       5    7    1         0.1211111310E+00      0.1211651008E+00
          0                 8           2             5    7     1       0.9489759730E-03       5    7    1         0.5236011588E-01      0.5237647075E-01
          0                 9           2             5    7     1       0.4102189502E-03       5    7    1         0.2263474053E-01      0.2264085301E-01
          0                10           2             5    7     1       0.1773243339E-03       5    7    1         0.9784395082E-02      0.9786885167E-02
          0                11           1             5    7     1       0.7665099083E-04       5    7    1         0.4229468673E-02      0.4230519006E-02

    ------------------------------------------------
       NWT REQUIRED           11 OUTER ITERATIONS 
       AND A TOTAL OF         21 INNER ITERATIONS.
    ------------------------------------------------

 NO OUTPUT CONTROL FOR STRESS PERIOD   35   TIME STEP   12
 
 SOLVING FOR HEAD 
                                                   Max.-Head-Change                         Max.-Flux-Residual
  Residual-Control   Outer-Iter.   Inner-Iter.     Column Row Layer    Maximum-Head-Change  Column Row Layer    Maximum-Flux-Residual          L2-NORM 
          0                 1           2             5    7     1       0.3232229983E+00       5    7    1         0.1770350738E+02      0.1883210010E+02
          0                 2           2             5    7     1       0.1108758762E+00       5    7    1         0.6091018669E+01      0.6377718867E+01
          0                 3           2             5    7     1       0.1330347582E-01       5    7    1         0.7262475430E+00      0.1014413651E+01
          0                 4           2             5    6     1       0.7721921463E-02       5    6    1         0.4206901731E+00      0.5336491084E+00
          0                 5           2             5    6     1       0.3363027713E-02       5    6    1         0.1846211691E+00      0.1905316182E+00
          0                 6           2             5    6     1       0.1458605174E-02       5    6    1         0.8028881711E-01      0.8076923383E-01
          0                 7           2             5    6     1       0.6316990684E-03       5    6    1         0.3480567736E-01      0.3485973110E-01
          0                 8           2             5    6     1       0.2734335821E-03       5    6    1         0.1507126523E-01      0.1508050854E-01
          0                 9           2             5    6     1       0.1183333305E-03       5    6    1         0.6523275146E-02      0.6525673440E-02
          0                10           1             5    6     1       0.5120697367E-04       5    6    1         0.2823005290E-02      0.2823825740E-02

    ------------------------------------------------
       NWT REQUIRED           10 OUTER ITERATIONS 
       AND A TOTAL OF         19 INNER ITERATIONS.
    ------------------------------------------------

 NO OUTPUT CONTROL FOR STRESS PERIOD   35   TIME STEP   13
 
 SOLVING FOR HEAD 
                                                   Max.-Head-Change                         Max.-Flux-Residual
  Residual-Control   Outer-Iter.   Inner-Iter.     Column Row Layer    Maximum-Head-Change  Column Row Layer    Maximum-Flux-Residual          L2-NORM 
          0                 1           2             5    6     1       0.3495417785E+00       5    6    1         0.1924597425E+02      0.2063085056E+02
          0                 2           2             5    6     1       0.1513314062E+00       5    6    1         0.8341740333E+01      0.8798278680E+01
          0                 3           2             5    6     1       0.6325427048E-01       5    6    1         0.3490981995E+01      0.3664881978E+01
          0                 4           2             5    6     1       0.2959876919E-01       5    6    1         0.1628453156E+01      0.1754487870E+01
          0                 5           2             5    6     1       0.1281393257E-01       5    6    1         0.7063130883E+00      0.7555433505E+00
          0                 6           2             5    6     1       0.5545371411E-02       5    6    1         0.3057213519E+00      0.3276753393E+00
          0                 7           2             5    6     1       0.2399538198E-02       5    6    1         0.1322976716E+00      0.1421280505E+00
          0                 8           2             5    6     1       0.1038269052E-02       5    6    1         0.5724566328E-01      0.6164969370E-01
          0                 9           2             5    6     1       0.4492509833E-03       5    6    1         0.2476982129E-01      0.2674290148E-01
          0                10           2             5    6     1       0.1943877380E-03       5    6    1         0.1071770007E-01      0.1160160853E-01
          0                11           1             5    6     1       0.8411058834E-04       5    6    1         0.4637474349E-02      0.5033410984E-02

    ------------------------------------------------
       NWT REQUIRED           11 OUTER ITERATIONS 
       AND A TOTAL OF         21 INNER ITERATIONS.
    ------------------------------------------------

 NO OUTPUT CONTROL FOR STRESS PERIOD   35   TIME STEP   14
 
 SOLVING FOR HEAD 
                                                   Max.-Head-Change                         Max.-Flux-Residual
  Residual-Control   Outer-Iter.   Inner-Iter.     Column Row Layer    Maximum-Head-Change  Column Row Layer    Maximum-Flux-Residual          L2-NORM 
          0                 1           2             4    7     1       0.3852133546E+00       4    7    1         0.2092907456E+02      0.2547162877E+02
          0                 2           2             4    7     1       0.1695982645E+00       4    7    1         0.9221626750E+01      0.9440382672E+01
          0                 3           2             4    7     1       0.7234178458E-01       4    7    1         0.3939698371E+01      0.3945855347E+01
          0                 4           2             4    7     1       0.3409717745E-01       4    7    1         0.1850517024E+01      0.1872768117E+01
          0                 5           2             4    7     1       0.1501843859E-01       4    7    1         0.8162127242E+00      0.8180341198E+00
          0                 6           2             4    7     1       0.6610096840E-02       4    7    1         0.3594355349E+00      0.3597320611E+00
          0                 7           1             4    7     1       0.2908477249E-02       4    7    1         0.1581871188E+00      0.1582639793E+00
          0                 8           1             4    7     1       0.1279601191E-02       4    7    1         0.6960121671E-01      0.6962756449E-01
          0                 9           1             4    7     1       0.5629442443E-03       4    7    1         0.3062120786E-01      0.3063159999E-01
          0                10           1             4    7     1       0.2476557225E-03       4    7    1         0.1347135532E-01      0.1347571995E-01
                                                   Max.-Head-Change                         Max.-Flux-Residual
  Residual-Control   Outer-Iter.   Inner-Iter.     Column Row Layer    Maximum-Head-Change  Column Row Layer    Maximum-Flux-Residual          L2-NORM 
          0                11           1             4    7     1       0.1089499964E-03       4    7    1         0.5926422915E-02      0.5928305517E-02
          0                12           1             4    7     1       0.4792970714E-04       4    7    1         0.2607181262E-02      0.2608002769E-02

    ------------------------------------------------
       NWT REQUIRED           12 OUTER ITERATIONS 
       AND A TOTAL OF         18 INNER ITERATIONS.
    ------------------------------------------------

 NO OUTPUT CONTROL FOR STRESS PERIOD   35   TIME STEP   15
 
 SOLVING FOR HEAD 
                                                   Max.-Head-Change                         Max.-Flux-Residual
  Residual-Control   Outer-Iter.   Inner-Iter.     Column Row Layer    Maximum-Head-Change  Column Row Layer    Maximum-Flux-Residual          L2-NORM 
          0                 1           2             4    7     1       0.2412445453E+00       4    7    1         0.1306828108E+02      0.1399485532E+02
          0                 2           2             4    7     1       0.3410572343E-01       4    7    1         0.1849184313E+01      0.1955015424E+01
          0                 3           2             4    7     1       0.2557977627E-02       4    7    1         0.1429835424E+00      0.2689890594E+00
          0                 4           2             4    7     1       0.2636784777E-02       4    7    1         0.1390197812E+00      0.2812009274E+00
          0                 5           2             4    7     1       0.3912597253E-03       4    6    1         0.2197687095E-01      0.4584904211E-01
          0                 6           1             4    6     1       0.7345240902E-04       4    6    1         0.4187058791E-02      0.8447042548E-02

    ------------------------------------------------
       NWT REQUIRED            6 OUTER ITERATIONS 
       AND A TOTAL OF         11 INNER ITERATIONS.
    ------------------------------------------------

 NO OUTPUT CONTROL FOR STRESS PERIOD   35   TIME STEP   16
 
 SOLVING FOR HEAD 
                                                   Max.-Head-Change                         Max.-Flux-Residual
  Residual-Control   Outer-Iter.   Inner-Iter.     Column Row Layer    Maximum-Head-Change  Column Row Layer    Maximum-Flux-Residual          L2-NORM 
          0                 1           2             4    6     1       0.5904070854E-01       4    6    1         0.3204583524E+01      0.5078376493E+01
          0                 2           2             4    6     1       0.8372721913E-02       4    6    1         0.4543054281E+00      0.6303439649E+00
          0                 3           2             5    6     1      -0.2216894047E-02       5    6    1        -0.1269736347E+00      0.2487403218E+00
          0                 4           2             5    6     1       0.2138643686E-02       5    6    1         0.1247909783E+00      0.2636507733E+00
          0                 5           2             4    6     1       0.3737422839E-03       4    6    1         0.2126131867E-01      0.4511913807E-01
          0                 6           1             4    7     1       0.7237339259E-04       4    6    1         0.4035391120E-02      0.8684868398E-02

    ------------------------------------------------
       NWT REQUIRED            6 OUTER ITERATIONS 
       AND A TOTAL OF         11 INNER ITERATIONS.
    ------------------------------------------------

 NO OUTPUT CONTROL FOR STRESS PERIOD   35   TIME STEP   17
 
 SOLVING FOR HEAD 
                                                   Max.-Head-Change                         Max.-Flux-Residual
  Residual-Control   Outer-Iter.   Inner-Iter.     Column Row Layer    Maximum-Head-Change  Column Row Layer    Maximum-Flux-Residual          L2-NORM 
          0                 1           2             4    6     1       0.3470127807E+00       4    6    1         0.1890292370E+02      0.1928398214E+02
          0                 2           2             4    6     1       0.1523065456E+00       4    6    1         0.8302018900E+01      0.8314165238E+01
          0                 3           2             4    6     1       0.6457177336E-01       4    6    1         0.3523550169E+01      0.3530911695E+01
          0                 4           2             4    6     1       0.3058585420E-01       4    6    1         0.1664023345E+01      0.1682756624E+01
          0                 5           2             4    6     1       0.1342606143E-01       4    6    1         0.7316404811E+00      0.7330764927E+00
          0                 6           2             4    6     1       0.5892067919E-02       4    6    1         0.3211396932E+00      0.3213301256E+00
          0                 7           2             4    6     1       0.2585465323E-02       4    6    1         0.1409305593E+00      0.1409683879E+00
          0                 8           2             4    6     1       0.1134457995E-02       4    6    1         0.6184044871E-01      0.6185154516E-01
          0                 9           2             4    6     1       0.4977700099E-03       4    6    1         0.2713443286E-01      0.2713851849E-01
          0                10           2             4    6     1       0.2184061601E-03       4    6    1         0.1190584892E-01      0.1190751364E-01
          0                11           1             4    6     1       0.9582949651E-04       4    6    1         0.5223916434E-02      0.5224624055E-02

    ------------------------------------------------
       NWT REQUIRED           11 OUTER ITERATIONS 
       AND A TOTAL OF         21 INNER ITERATIONS.
    ------------------------------------------------

 NO OUTPUT CONTROL FOR STRESS PERIOD   35   TIME STEP   18
 
 SOLVING FOR HEAD 
                                                   Max.-Head-Change                         Max.-Flux-Residual
  Residual-Control   Outer-Iter.   Inner-Iter.     Column Row Layer    Maximum-Head-Change  Column Row Layer    Maximum-Flux-Residual          L2-NORM 
          0                 1           2             4    6     1       0.3444434124E+00       4    6    1         0.1873956026E+02      0.1915228411E+02
          0                 2           2             4    6     1       0.8901808645E-01       4    6    1         0.4852207913E+01      0.4876258530E+01
          0                 3           2             4    6     1       0.1028016792E-01       4    6    1         0.5632138618E+00      0.6077759375E+00
          0                 4           2             4    6     1       0.3703671840E-02       4    6    1         0.1983511998E+00      0.3154201327E+00
          0                 5           2             4    6     1       0.5280157029E-03       4    6    1         0.2854454875E-01      0.5012241596E-01
          0                 6           1             4    7     1       0.7926448220E-04       4    7    1         0.4394891584E-02      0.8909836108E-02

    ------------------------------------------------
       NWT REQUIRED            6 OUTER ITERATIONS 
       AND A TOTAL OF         11 INNER ITERATIONS.
    ------------------------------------------------

 NO OUTPUT CONTROL FOR STRESS PERIOD   35   TIME STEP   19
 
 SOLVING FOR HEAD 
                                                   Max.-Head-Change                         Max.-Flux-Residual
  Residual-Control   Outer-Iter.   Inner-Iter.     Column Row Layer    Maximum-Head-Change  Column Row Layer    Maximum-Flux-Residual          L2-NORM 
          0                 1           2             4    5     1       0.3420049699E-01       4    5    1         0.1848291698E+01      0.4148892006E+01
          0                 2           2             4    7     1       0.4736972260E-02       4    7    1         0.2548539122E+00      0.4796643884E+00
          0                 3           2             5    6     1      -0.2142887781E-02       5    6    1        -0.1182919346E+00      0.2599318247E+00
          0                 4           2             5    6     1       0.2250971838E-02       5    6    1         0.1280100965E+00      0.2622230154E+00
          0                 5           2             4    7     1       0.3734165497E-03       4    7    1         0.2064804075E-01      0.4482571383E-01
          0                 6           1             4    7     1       0.7327411417E-04       4    7    1         0.4055389931E-02      0.8568776717E-02

    ------------------------------------------------
       NWT REQUIRED            6 OUTER ITERATIONS 
       AND A TOTAL OF         11 INNER ITERATIONS.
    ------------------------------------------------

 NO OUTPUT CONTROL FOR STRESS PERIOD   35   TIME STEP   20
 
 SOLVING FOR HEAD 
                                                   Max.-Head-Change                         Max.-Flux-Residual
  Residual-Control   Outer-Iter.   Inner-Iter.     Column Row Layer    Maximum-Head-Change  Column Row Layer    Maximum-Flux-Residual          L2-NORM 
          0                 1           2             4    5     1       0.3291448062E-01       4    5    1         0.1777658992E+01      0.4038781033E+01
          0                 2           2             4    7     1       0.4556796901E-02       4    7    1         0.2448810220E+00      0.4681233277E+00
          0                 3           2             5    6     1      -0.2138484825E-02       5    6    1        -0.1180507118E+00      0.2596686206E+00
          0                 4           2             5    6     1       0.2251039493E-02       5    6    1         0.1280108049E+00      0.2622396277E+00
          0                 5           2             4    7     1       0.3727746601E-03       4    7    1         0.2061045660E-01      0.4482866072E-01
          0                 6           1             4    7     1       0.7315645122E-04       4    7    1         0.4048504382E-02      0.8569127815E-02

    ------------------------------------------------
       NWT REQUIRED            6 OUTER ITERATIONS 
       AND A TOTAL OF         11 INNER ITERATIONS.
    ------------------------------------------------

 NO OUTPUT CONTROL FOR STRESS PERIOD   35   TIME STEP   21
 
 SOLVING FOR HEAD 
                                                   Max.-Head-Change                         Max.-Flux-Residual
  Residual-Control   Outer-Iter.   Inner-Iter.     Column Row Layer    Maximum-Head-Change  Column Row Layer    Maximum-Flux-Residual          L2-NORM 
          0                 1           2             4    5     1       0.3170118788E-01       4    5    1         0.1711048757E+01      0.3936997686E+01
          0                 2           2             4    7     1       0.4390651302E-02       4    7    1         0.2356881845E+00      0.4571715477E+00
          0                 3           2             5    6     1      -0.2224380389E-02       5    6    1        -0.1229296734E+00      0.2618018665E+00
          0                 4           2             5    6     1       0.2219588198E-02       5    6    1         0.1261749392E+00      0.2613478915E+00
          0                 5           2             4    7     1       0.3721831656E-03       4    7    1         0.2057512487E-01      0.4461769368E-01
          0                 6           1             4    7     1       0.7305109610E-04       4    7    1         0.4042436381E-02      0.8586687725E-02

    ------------------------------------------------
       NWT REQUIRED            6 OUTER ITERATIONS 
       AND A TOTAL OF         11 INNER ITERATIONS.
    ------------------------------------------------

 NO OUTPUT CONTROL FOR STRESS PERIOD   35   TIME STEP   22
 
 SOLVING FOR HEAD 
                                                   Max.-Head-Change                         Max.-Flux-Residual
  Residual-Control   Outer-Iter.   Inner-Iter.     Column Row Layer    Maximum-Head-Change  Column Row Layer    Maximum-Flux-Residual          L2-NORM 
          0                 1           2             4    5     1       0.3055596369E-01       4    5    1         0.1648184337E+01      0.3846169785E+01
          0                 2           2             4    7     1       0.4238029856E-02       4    7    1         0.2272106933E+00      0.4505252014E+00
          0                 3           2             4    6     1      -0.2060655203E-02       4    6    1        -0.1126896633E+00      0.2564671850E+00
          0                 4           2             4    7     1       0.1889667167E-02       4    7    1         0.1044204190E+00      0.2502457361E+00
          0                 5           2             4    7     1       0.3712784328E-03       4    7    1         0.2052609792E-01      0.4846567731E-01
          0                 6           1             4    7     1       0.7290298359E-04       4    7    1         0.4032331344E-02      0.9388916603E-02

    ------------------------------------------------
       NWT REQUIRED            6 OUTER ITERATIONS 
       AND A TOTAL OF         11 INNER ITERATIONS.
    ------------------------------------------------

 NO OUTPUT CONTROL FOR STRESS PERIOD   35   TIME STEP   23
 
 SOLVING FOR HEAD 
                                                   Max.-Head-Change                         Max.-Flux-Residual
  Residual-Control   Outer-Iter.   Inner-Iter.     Column Row Layer    Maximum-Head-Change  Column Row Layer    Maximum-Flux-Residual          L2-NORM 
          0                 1           2             4    5     1       0.2947626307E-01       4    5    1         0.1588903151E+01      0.3759857484E+01
          0                 2           2             4    7     1       0.4091700776E-02       4    7    1         0.2192926101E+00      0.4418893447E+00
          0                 3           2             4    6     1      -0.2046239516E-02       4    6    1        -0.1118684544E+00      0.2561681224E+00
          0                 4           2             4    7     1       0.1887213991E-02       4    7    1         0.1042763757E+00      0.2502994115E+00
          0                 5           2             4    7     1       0.3708302345E-03       4    7    1         0.2049979792E-01      0.4847566509E-01
          0                 6           1             4    7     1       0.7282108466E-04       4    7    1         0.4027525886E-02      0.9390755918E-02

    ------------------------------------------------
       NWT REQUIRED            6 OUTER ITERATIONS 
       AND A TOTAL OF         11 INNER ITERATIONS.
    ------------------------------------------------

 NO OUTPUT CONTROL FOR STRESS PERIOD   35   TIME STEP   24
 
 SOLVING FOR HEAD 
                                                   Max.-Head-Change                         Max.-Flux-Residual
  Residual-Control   Outer-Iter.   Inner-Iter.     Column Row Layer    Maximum-Head-Change  Column Row Layer    Maximum-Flux-Residual          L2-NORM 
          0                 1           2             4    5     1       0.2845687713E-01       4    5    1         0.1532957537E+01      0.3679407960E+01
          0                 2           2             4    7     1       0.3960017430E-02       4    7    1         0.2120136339E+00      0.4339205409E+00
          0                 3           2             4    6     1      -0.2033187214E-02       4    6    1        -0.1111230975E+00      0.2559608238E+00
          0                 4           2             4    7     1       0.1884649355E-02       4    7    1         0.1041263076E+00      0.2503379345E+00
          0                 5           2             4    7     1       0.3703569751E-03       4    7    1         0.2047212275E-01      0.4848231137E-01
          0                 6           1             4    7     1       0.7273655530E-04       4    7    1         0.4022576937E-02      0.9392275939E-02

    ------------------------------------------------
       NWT REQUIRED            6 OUTER ITERATIONS 
       AND A TOTAL OF         11 INNER ITERATIONS.
    ------------------------------------------------

 NO OUTPUT CONTROL FOR STRESS PERIOD   35   TIME STEP   25
 
 SOLVING FOR HEAD 
                                                   Max.-Head-Change                         Max.-Flux-Residual
  Residual-Control   Outer-Iter.   Inner-Iter.     Column Row Layer    Maximum-Head-Change  Column Row Layer    Maximum-Flux-Residual          L2-NORM 
          0                 1           2             4    5     1       0.2749405698E-01       4    5    1         0.1480139006E+01      0.3604353039E+01
          0                 2           2             4    7     1       0.3838271861E-02       4    7    1         0.2052895437E+00      0.4265231129E+00
          0                 3           2             4    6     1      -0.2021370195E-02       5    6    1        -0.1105120375E+00      0.2557999734E+00
          0                 4           2             4    7     1       0.1882271288E-02       4    7    1         0.1039872969E+00      0.2503694852E+00
          0                 5           2             4    7     1       0.3699213338E-03       4    7    1         0.2044666213E-01      0.4848816252E-01
          0                 6           1             4    7     1       0.7265527363E-04       4    7    1         0.4017832367E-02      0.9393136975E-02

    ------------------------------------------------
       NWT REQUIRED            6 OUTER ITERATIONS 
       AND A TOTAL OF         11 INNER ITERATIONS.
    ------------------------------------------------

 NO OUTPUT CONTROL FOR STRESS PERIOD   35   TIME STEP   26
 
 SOLVING FOR HEAD 
                                                   Max.-Head-Change                         Max.-Flux-Residual
  Residual-Control   Outer-Iter.   Inner-Iter.     Column Row Layer    Maximum-Head-Change  Column Row Layer    Maximum-Flux-Residual          L2-NORM 
          0                 1           2             4    5     1       0.2658419615E-01       4    5    1         0.1430247056E+01      0.3534142922E+01
          0                 2           2             4    7     1       0.3725570513E-02       4    7    1         0.1990703891E+00      0.4196281395E+00
          0                 3           2             4    6     1      -0.2010687891E-02       5    6    1        -0.1101669025E+00      0.2556817781E+00
          0                 4           2             4    7     1       0.1880064511E-02       4    7    1         0.1038584311E+00      0.2503947392E+00
          0                 5           2             4    7     1       0.3695128424E-03       4    7    1         0.2042282568E-01      0.4849230935E-01
          0                 6           1             4    7     1       0.7258224941E-04       4    7    1         0.4013566353E-02      0.9394146144E-02

    ------------------------------------------------
       NWT REQUIRED            6 OUTER ITERATIONS 
       AND A TOTAL OF         11 INNER ITERATIONS.
    ------------------------------------------------

 NO OUTPUT CONTROL FOR STRESS PERIOD   35   TIME STEP   27
 
 SOLVING FOR HEAD 
                                                   Max.-Head-Change                         Max.-Flux-Residual
  Residual-Control   Outer-Iter.   Inner-Iter.     Column Row Layer    Maximum-Head-Change  Column Row Layer    Maximum-Flux-Residual          L2-NORM 
          0                 1           2             4    5     1       0.2572394982E-01       4    5    1         0.1383095845E+01      0.3468301941E+01
          0                 2           2             4    7     1       0.3621103973E-02       4    7    1         0.1933108573E+00      0.4131772529E+00
          0                 3           2             4    6     1      -0.2001046806E-02       5    6    1        -0.1098502727E+00      0.2556013163E+00
          0                 4           2             4    7     1       0.1878012585E-02       4    7    1         0.1037387391E+00      0.2504140374E+00
          0                 5           2             4    7     1       0.3691389603E-03       4    7    1         0.2040101359E-01      0.4849622727E-01
          0                 6           1             4    7     1       0.7250999700E-04       4    7    1         0.4009363717E-02      0.9394362352E-02

    ------------------------------------------------
       NWT REQUIRED            6 OUTER ITERATIONS 
       AND A TOTAL OF         11 INNER ITERATIONS.
    ------------------------------------------------

 NO OUTPUT CONTROL FOR STRESS PERIOD   35   TIME STEP   28
 
 SOLVING FOR HEAD 
                                                   Max.-Head-Change                         Max.-Flux-Residual
  Residual-Control   Outer-Iter.   Inner-Iter.     Column Row Layer    Maximum-Head-Change  Column Row Layer    Maximum-Flux-Residual          L2-NORM 
          0                 1           2             4    5     1       0.2491007566E-01       4    5    1         0.1338505631E+01      0.3406385935E+01
          0                 2           2             4    7     1       0.3524157033E-02       4    7    1         0.1879709465E+00      0.4071174474E+00
          0                 3           2             4    6     1      -0.1992363741E-02       5    6    1        -0.1095609848E+00      0.2555555056E+00
          0                 4           2             4    7     1       0.1876102881E-02       4    7    1         0.1036274679E+00      0.2504279287E+00
          0                 5           2             4    7     1       0.3687869876E-03       4    7    1         0.2038051475E-01      0.4849860652E-01
          0                 6           1             4    7     1       0.7244505864E-04       4    7    1         0.4005583635E-02      0.9394748056E-02

    ------------------------------------------------
       NWT REQUIRED            6 OUTER ITERATIONS 
       AND A TOTAL OF         11 INNER ITERATIONS.
    ------------------------------------------------

 NO OUTPUT CONTROL FOR STRESS PERIOD   35   TIME STEP   29
 
 SOLVING FOR HEAD 
                                                   Max.-Head-Change                         Max.-Flux-Residual
  Residual-Control   Outer-Iter.   Inner-Iter.     Column Row Layer    Maximum-Head-Change  Column Row Layer    Maximum-Flux-Residual          L2-NORM 
          0                 1           2             4    5     1       0.2413956229E-01       4    5    1         0.1296309239E+01      0.3348027142E+01
          0                 2           2             4    7     1       0.3434045281E-02       4    7    1         0.1830123695E+00      0.4013214889E+00
          0                 3           2             4    6     1      -0.1984559867E-02       5    6    1        -0.1092972721E+00      0.2555401451E+00
          0                 4           2             4    7     1       0.1874321458E-02       4    7    1         0.1035237944E+00      0.2504367477E+00
          0                 5           2             4    7     1       0.3684585376E-03       4    7    1         0.2036140838E-01      0.4850007311E-01
          0                 6           1             4    7     1       0.7238436995E-04       4    7    1         0.4002055236E-02      0.9394960697E-02

    ------------------------------------------------
       NWT REQUIRED            6 OUTER ITERATIONS 
       AND A TOTAL OF         11 INNER ITERATIONS.
    ------------------------------------------------

 NO OUTPUT CONTROL FOR STRESS PERIOD   35   TIME STEP   30



 STREAM LISTING     PERIOD     35   STEP       30

 LAYER ROW COL. STREAM  RCH.  FLOW INTO     FLOW TO   FLOW OUT OF   OVRLND.     DIRECT     STREAM       STREAM     STREAM     STREAM   STREAMBED  STREAMBED
                SEG.NO.  NO.  STRM. RCH.    AQUIFER    STRM. RCH.    RUNOFF     PRECIP       ET          HEAD       DEPTH      WIDTH   CONDCTNC.   GRADIENT

   1    1    1     1     1    1.3125E+01  1.7336E-01   1.2951E+01  0.000E+00  0.000E+00  0.000E+00  1.09402E+03  9.718E-01  9.699E+00  4.365E-02  1.324E+00
   1    2    2     1     2    1.2951E+01  2.6707E-01   1.2684E+01  0.000E+00  0.000E+00  0.000E+00  1.08903E+03  9.671E-01  9.617E+00  6.732E-02  1.322E+00
   1    3    3     1     3    1.2684E+01  2.2640E-01   1.2458E+01  0.000E+00  0.000E+00  0.000E+00  1.08338E+03  9.616E-01  9.525E+00  5.715E-02  1.321E+00
   1    3    4     1     4    1.2458E+01  2.0736E-01   1.2250E+01  0.000E+00  0.000E+00  0.000E+00  1.07836E+03  9.568E-01  9.443E+00  5.241E-02  1.319E+00
   1    4    5     2     1    1.0250E+01  2.8870E-01   9.9617E+00  0.000E+00  0.000E+00  0.000E+00  1.07264E+03  7.013E-01  1.200E+01  7.800E-02  1.234E+00
   1    5    6     2     2    9.9617E+00  2.2144E-01   9.7403E+00  0.000E+00  0.000E+00  0.000E+00  1.06720E+03  6.906E-01  1.200E+01  6.000E-02  1.230E+00
   1    6    6     2     3    9.7403E+00  2.2088E-01   9.5194E+00  0.000E+00  0.000E+00  0.000E+00  1.06247E+03  6.813E-01  1.200E+01  6.000E-02  1.227E+00
   1    7    6     2     4    9.5194E+00  2.2031E-01   9.2991E+00  0.000E+00  0.000E+00  0.000E+00  1.05775E+03  6.719E-01  1.200E+01  6.000E-02  1.224E+00
   1    8    6     2     5    9.2991E+00  2.1974E-01   9.0793E+00  0.000E+00  0.000E+00  0.000E+00  1.05302E+03  6.624E-01  1.200E+01  6.000E-02  1.221E+00
   1    3    5     3     1    2.0000E+00  2.8252E-01   1.7175E+00  0.000E+00  0.000E+00  0.000E+00  1.07555E+03  1.909E+00  9.636E+00  7.227E-02  1.955E+00
   1    3    6     3     2    1.7175E+00  2.4905E-01   1.4684E+00  0.000E+00  0.000E+00  0.000E+00  1.07264E+03  1.727E+00  8.909E+00  6.682E-02  1.864E+00
   1    3    7     3     3    1.4684E+00  1.9718E-01   1.2712E+00  0.000E+00  0.000E+00  0.000E+00  1.06987E+03  1.555E+00  8.218E+00  5.547E-02  1.777E+00
   1    4    8     3     4    1.2712E+00  2.2567E-01   1.0456E+00  0.000E+00  0.000E+00  0.000E+00  1.06682E+03  1.364E+00  7.455E+00  6.709E-02  1.682E+00
   1    5    8     3     5    1.0456E+00  1.5790E-01   8.8768E-01  0.000E+00  0.000E+00  0.000E+00  1.06362E+03  1.164E+00  6.655E+00  4.991E-02  1.582E+00
   1    6    8     3     6    8.8768E-01  5.5980E-02   8.3170E-01  0.000E+00  0.000E+00  0.000E+00  1.06158E+03  1.036E+00  6.145E+00  1.844E-02  1.518E+00
   1    5   10     4     1    1.0000E+01  9.0919E-02   9.9091E+00  0.000E+00  0.000E+00  0.000E+00  1.07836E+03  6.368E-01  1.000E+01  2.500E-02  1.212E+00
   1    5    9     4     2    9.9091E+00  1.8158E-01   9.7275E+00  0.000E+00  0.000E+00  0.000E+00  1.07154E+03  6.315E-01  1.000E+01  5.000E-02  1.211E+00
   1    6    8     4     3    9.7275E+00  1.2689E-01   9.6006E+00  0.000E+00  0.000E+00  0.000E+00  1.06381E+03  6.256E-01  1.000E+01  3.500E-02  1.209E+00
   1    6    8     5     1    1.0432E+01  2.2686E-01   1.0205E+01  0.000E+00  0.000E+00  0.000E+00  1.05868E+03  6.790E-01  1.542E+01  6.166E-02  1.226E+00
   1    7    7     5     2    1.0205E+01  2.7894E-01   9.9265E+00  0.000E+00  0.000E+00  0.000E+00  1.05417E+03  6.732E-01  1.519E+01  7.594E-02  1.224E+00
   1    8    7     5     3    9.9265E+00  1.9221E-01   9.7343E+00  0.000E+00  0.000E+00  0.000E+00  1.04992E+03  6.676E-01  1.497E+01  5.241E-02  1.223E+00
   1    8    6     5     4    9.7343E+00  1.3577E-01   9.5985E+00  0.000E+00  0.000E+00  0.000E+00  1.04691E+03  6.637E-01  1.482E+01  3.706E-02  1.221E+00
   1    9    6     6     1    1.7959E+01  2.3983E-01   1.7719E+01  0.000E+00  0.000E+00  0.000E+00  1.04372E+03  9.972E-01  1.200E+01  6.000E-02  1.332E+00
   1   10    7     6     2    1.7719E+01  2.3935E-01   1.7480E+01  0.000E+00  0.000E+00  0.000E+00  1.03917E+03  9.892E-01  1.200E+01  6.000E-02  1.330E+00
   1   11    7     6     3    1.7480E+01  2.3886E-01   1.7241E+01  0.000E+00  0.000E+00  0.000E+00  1.03462E+03  9.811E-01  1.200E+01  6.000E-02  1.327E+00
   1   12    7     6     4    1.7241E+01  2.3838E-01   1.7002E+01  0.000E+00  0.000E+00  0.000E+00  1.03006E+03  9.730E-01  1.200E+01  6.000E-02  1.324E+00
   1   13    7     6     5    1.7002E+01  8.4076E-03   1.6994E+01  0.000E+00  0.000E+00  0.000E+00  1.02688E+03  9.687E-01  1.200E+01  2.400E-02  1.168E-01
   1   14    9     7     1    1.5000E+02  1.3941E+00   1.4861E+02  0.000E+00  0.000E+00  0.000E+00  1.03987E+03  2.288E+00  5.529E+01  5.593E-01  8.309E-01
   1   13    8     7     2    1.4861E+02  2.0144E+00   1.4659E+02  0.000E+00  0.000E+00  0.000E+00  1.03478E+03  2.279E+00  5.525E+01  6.147E-01  1.092E+00
   1   13    7     7     3    1.4659E+02  1.7645E+00   1.4483E+02  0.000E+00  0.000E+00  0.000E+00  1.02969E+03  2.268E+00  5.521E+01  5.584E-01  1.053E+00
   1   13    6     8     1    1.6182E+02  1.1598E+00   1.6066E+02  0.000E+00  0.000E+00  0.000E+00  1.02477E+03  2.894E+00  4.197E+01  4.276E-01  9.040E-01
   1   13    5     8     2    1.6066E+02  4.0003E-01   1.6026E+02  0.000E+00  0.000E+00  0.000E+00  1.01851E+03  2.889E+00  4.189E+01  4.269E-01  3.124E-01
   1   13    4     8     3    1.6026E+02 -1.6677E+00   1.6193E+02  0.000E+00  0.000E+00  0.000E+00  1.01227E+03  2.893E+00  4.195E+01  4.275E+00 -1.300E-01
   1   13    3     8     4    1.6193E+02 -3.2650E+00   1.6519E+02  0.000E+00  0.000E+00  0.000E+00  1.00603E+03  2.910E+00  4.219E+01  4.299E+00 -2.531E-01
   1   13    2     8     5    1.6519E+02 -2.4686E+00   1.6766E+02  0.000E+00  0.000E+00  0.000E+00  9.99804E+02  2.929E+00  4.247E+01  4.328E+00 -1.901E-01
   1   13    1     8     6    1.6766E+02 -1.9388E+00   1.6960E+02  0.000E+00  0.000E+00  0.000E+00  9.94818E+02  2.943E+00  4.268E+01  2.609E+00 -2.477E-01
   1    8    6     9     1    7.1917E-01  0.0000E+00   7.1917E-01  0.000E+00  0.000E+00  0.000E+00  1.07922E+03  4.671E-01  4.000E+00  0.000E+00  1.156E+00
   1    8    5     9     2    7.1917E-01  0.0000E+00   7.1917E-01  0.000E+00  0.000E+00  0.000E+00  1.07872E+03  4.671E-01  4.000E+00  0.000E+00  1.156E+00





UNSATURATED ZONE PACKAGE VOLUMETRIC BUDGET FOR  TIME STEP    30 STRESS PERIOD   35
  ------------------------------------------------------------------------------



     CUMULATIVE VOLUMES      L**3       RATES FOR THIS TIME STEP      L**3/T
     ------------------                 ------------------------

           IN:                                      IN:
           ---                                      ---
        INFILTRATION =  1749669976.2352          INFILTRATION =           1.5667

          OUT:                                     OUT:
          ----                                     ----
              UZF ET =  1279120582.0097                UZF ET =           1.5675
        UZF RECHARGE =   110264518.2421          UZF RECHARGE =           1.5793

            IN - OUT =   360284875.9834              IN - OUT =          -1.5801

          STORAGE:                                 STORAGE:
          --------                                 --------
      STORAGE CHANGE =   360285126.9388        STORAGE CHANGE =          -1.5801

 PERCENT DISCREPANCY IS DIFFERENCE BETWEEN IN-OUT MINUS CHANGE IN STORAGE
 DIVIDED BY THE AVERAGE OF IN AND OUT TIMES 100

 PERCENT DISCREPANCY =          -0.00     PERCENT DISCREPANCY =           0.00






1
  VOLUMETRIC BUDGET FOR AGRICULTURAL FIELDS AT  END OF TIME STEP   30, STRESS PERIOD  35
  ------------------------------------------------------------------------------

     CUMULATIVE VOLUMES      L**3       RATES FOR THIS TIME STEP      L**3/T
     ------------------                 ------------------------

           IN:                                      IN:
           ---                                      ---
               AG WELLS  =  1086541952.0000                 AG WELLS  =           0.0000
      DIVERSION SEGMENTS =   587377792.0000        DIVERSION SEGMENTS =           0.7192
       IRRIGATION PONDS  =           0.0000         IRRIGATION PONDS  =           0.0000
           GW IRRIGATION =           0.0000             GW IRRIGATION =           0.0000
           SW IRRIGATION =           0.0000             SW IRRIGATION =           0.0000
        SYSTEM LOSSES GW =           0.0000          SYSTEM LOSSES GW =           0.0000
        SYSTEM LOSSES SW =           0.0000          SYSTEM LOSSES SW =           0.0000

                TOTAL IN =  1673919744.0000                  TOTAL IN =           0.7192

          OUT:                                     OUT:
          ----                                     ----
               AG WELLS  =           0.0000                 AG WELLS  =           0.0000
      DIVERSION SEGMENTS =           0.0000        DIVERSION SEGMENTS =           0.0000
       IRRIGATION PONDS  =           0.0000         IRRIGATION PONDS  =           0.0000
           GW IRRIGATION =  1086541952.0000             GW IRRIGATION =           0.0000
           SW IRRIGATION =   587388864.0000             SW IRRIGATION =           0.7192
        SYSTEM LOSSES GW =           0.0000          SYSTEM LOSSES GW =           0.0000
        SYSTEM LOSSES SW =           0.0000          SYSTEM LOSSES SW =           0.0000

               TOTAL OUT =  1673930752.0000                 TOTAL OUT =           0.7192

                IN - OUT =      -11008.0000                  IN - OUT =      -1.4365E-05

     PERCENT DISCREPANCY =          -0.00         PERCENT DISCREPANCY =          -0.00



1
  VOLUMETRIC BUDGET FOR ENTIRE MODEL AT END OF TIME STEP   30, STRESS PERIOD  35
  ------------------------------------------------------------------------------

     CUMULATIVE VOLUMES      L**3       RATES FOR THIS TIME STEP      L**3/T
     ------------------                 ------------------------

           IN:                                      IN:
           ---                                      ---
             STORAGE     =  1604487424.0000               STORAGE     =           8.5225
       CONSTANT HEAD     =           0.0000         CONSTANT HEAD     =           0.0000
     HEAD DEP BOUNDS     =    25820872.0000       HEAD DEP BOUNDS     =           0.2897
      STREAM LEAKAGE     =  1069467136.0000        STREAM LEAKAGE     =          12.1444
        UZF RECHARGE     =   110264528.0000          UZF RECHARGE     =           1.5793
               GW ET     =           0.0000                 GW ET     =           0.0000
     SURFACE LEAKAGE     =           0.0000       SURFACE LEAKAGE     =           0.0000
           AG WELLS      =           0.0000             AG WELLS      =           0.0000

                TOTAL IN =  2810040064.0000                  TOTAL IN =          22.5359

          OUT:                                     OUT:
          ----                                     ----
             STORAGE     =   810203264.0000               STORAGE     =          12.9040
       CONSTANT HEAD     =           0.0000         CONSTANT HEAD     =           0.0000
     HEAD DEP BOUNDS     =    25757958.0000       HEAD DEP BOUNDS     =           0.2873
      STREAM LEAKAGE     =   887534976.0000        STREAM LEAKAGE     =           9.3400
        UZF RECHARGE     =           0.0000          UZF RECHARGE     =           0.0000
               GW ET     =           0.0000                 GW ET     =           0.0000
     SURFACE LEAKAGE     =           0.0000       SURFACE LEAKAGE     =           0.0000
           AG WELLS      =  1086541952.0000             AG WELLS      =           0.0000

               TOTAL OUT =  2810038272.0000                 TOTAL OUT =          22.5314

                IN - OUT =        1792.0000                  IN - OUT =       4.4575E-03

     PERCENT DISCREPANCY =           0.00         PERCENT DISCREPANCY =           0.02






         TIME SUMMARY AT END OF TIME STEP   30 IN STRESS PERIOD   35
                    SECONDS     MINUTES      HOURS       DAYS        YEARS
                    -----------------------------------------------------------
   TIME STEP LENGTH  87667.      1461.1      24.352      1.0147     2.77799E-03
 STRESS PERIOD TIME 2.63000E+06  43833.      730.56      30.440     8.33397E-02
         TOTAL TIME 8.95061E+07 1.49177E+06  24863.      1036.0      2.8363    
1
1
                            STRESS PERIOD NO.   36, LENGTH =   2630000.    
                            -----------------------------------------------

                              NUMBER OF TIME STEPS =    30

                               MULTIPLIER FOR DELT =     1.000

                            INITIAL TIME STEP SIZE =   87666.66    

 REUSING NON-PARAMETER GHB CELLS FROM LAST STRESS PERIOD

      2 GHB CELLS

 REUSING STREAM SEGMENT DATA FROM LAST STRESS PERIOD



            AREAL INFILTRATION RATE
 READING ON UNIT   19 WITH FORMAT: (FREE)              

            1           2           3           4           5           6           7           8           9          10
 ........................................................................................................................
   1   1.0000E-10  2.0000E-10   0.000       0.000       0.000       0.000       0.000       0.000       0.000       0.000    
   2   2.0000E-10  1.0000E-10  2.0000E-10   0.000       0.000      8.0000E-10  8.0000E-10  5.0000E-10   0.000       0.000    
   3    0.000      5.0000E-10  1.0000E-10  1.0000E-10  8.0000E-10  8.0000E-10  5.0000E-10  5.0000E-10   0.000       0.000    
   4   8.0000E-10  5.0000E-10  1.0000E-10  1.0000E-10  1.0000E-10  1.0000E-10  1.0000E-10  1.0000E-10  2.0000E-10   0.000    
   5   8.0000E-10  5.0000E-10  1.0000E-10  1.0000E-10  1.0000E-10  1.0000E-10  1.0000E-10  1.0000E-10  1.0000E-10  1.0000E-10
   6   8.0000E-10  5.0000E-10  5.0000E-10  2.0000E-10  2.0000E-10  1.0000E-10  1.0000E-10  1.0000E-10  1.0000E-10  5.0000E-10
   7   8.0000E-10  5.0000E-10  5.0000E-10  2.0000E-10  2.0000E-10  1.0000E-10  1.0000E-10  2.0000E-10  2.0000E-10   0.000    
   8    0.000      5.0000E-10  5.0000E-10  2.0000E-10  2.0000E-10  1.0000E-10  1.0000E-10  2.0000E-10  5.0000E-10   0.000    
   9    0.000      5.0000E-10  5.0000E-10  2.0000E-10  2.0000E-10  1.0000E-10  1.0000E-10  2.0000E-10  5.0000E-10   0.000    
  10    0.000      5.0000E-10  5.0000E-10  2.0000E-10  2.0000E-10  1.0000E-10  1.0000E-10  2.0000E-10  5.0000E-10  8.0000E-10
  11    0.000      1.0000E-10  1.0000E-10  1.0000E-10  1.0000E-10  1.0000E-10  1.0000E-10  2.0000E-10  5.0000E-10   0.000    
  12   1.0000E-10  1.0000E-10  1.0000E-10  1.0000E-10  1.0000E-10  1.0000E-10  1.0000E-10  1.0000E-10  2.0000E-10   0.000    
  13   1.0000E-10  1.0000E-10  2.0000E-10  2.0000E-10  2.0000E-10  2.0000E-10  2.0000E-10  1.0000E-10  1.0000E-10   0.000    
  14    0.000      2.0000E-10  5.0000E-10  5.0000E-10  5.0000E-10  5.0000E-10  5.0000E-10  2.0000E-10  1.0000E-10   0.000    
  15    0.000       0.000      8.0000E-10  8.0000E-10  8.0000E-10  8.0000E-10   0.000       0.000       0.000       0.000    

                  ET RATE =  5.000000E-10

 USING ET EXTINCTION DEPTH FROM PREVIOUS STRESS PERIOD. CURRENT PERIOD IS:      36

 USING EXTINCTION WATER CONTENT FROM PREVIOUS STRESS PERIOD. CURRENT PERIOD IS:      36

 USING AIR ENTRY PRESSURE FROM PREVIOUS STRESS PERIOD. CURRENT PERIOD IS:      36

 USING ROOT PRESSURE HEAD FROM PREVIOUS STRESS PERIOD. CURRENT PERIOD IS:      36

 USING ROOT ACTIVITY FROM PREVIOUS STRESS PERIOD. CURRENT PERIOD IS:      36

 PROCESSING AG STRESS PERIOD DATA

 READING AG STRESS PERIOD DATA

 READING IRRIGATION SEGMENT

 READING IRRIGATION WELL

 READING SUPPLEMENTAL WELL

 NO IRRPOND OR REUSING IRRPOND DATA FROM LAST STRESS PERIOD

 END PROCESSING AG STRESS PERIOD DATA OPTIONS
 
 SOLVING FOR HEAD 
                                                   Max.-Head-Change                         Max.-Flux-Residual
  Residual-Control   Outer-Iter.   Inner-Iter.     Column Row Layer    Maximum-Head-Change  Column Row Layer    Maximum-Flux-Residual          L2-NORM 
          0                 1           2             4    5     1       0.2340987573E-01       4    5    1         0.1256366033E+01      0.3292966235E+01
          0                 2           2             4    7     1       0.3350185510E-02       4    7    1         0.1784025929E+00      0.3960067718E+00
          0                 3           2             4    7     1       0.4926884758E-03       4    7    1         0.2613418318E-01      0.4653714398E-01
          0                 4           1             4    7     1       0.7250957527E-04       4    7    1         0.3850014623E-02      0.6389205048E-02

    ------------------------------------------------
       NWT REQUIRED            4 OUTER ITERATIONS 
       AND A TOTAL OF          7 INNER ITERATIONS.
    ------------------------------------------------

 NO OUTPUT CONTROL FOR STRESS PERIOD   36   TIME STEP    1
 
 SOLVING FOR HEAD 
                                                   Max.-Head-Change                         Max.-Flux-Residual
  Residual-Control   Outer-Iter.   Inner-Iter.     Column Row Layer    Maximum-Head-Change  Column Row Layer    Maximum-Flux-Residual          L2-NORM 
          0                 1           2             4    5     1       0.2271850412E-01       4    5    1         0.1218546595E+01      0.3244734957E+01
          0                 2           2             4    7     1       0.3271980689E-02       4    7    1         0.1741105745E+00      0.3911591931E+00
          0                 3           2             4    7     1       0.4817958191E-03       4    7    1         0.2553715386E-01      0.4613045545E-01
          0                 4           1             4    7     1       0.7098980578E-04       4    7    1         0.3766783223E-02      0.6345061608E-02

    ------------------------------------------------
       NWT REQUIRED            4 OUTER ITERATIONS 
       AND A TOTAL OF          7 INNER ITERATIONS.
    ------------------------------------------------

 NO OUTPUT CONTROL FOR STRESS PERIOD   36   TIME STEP    2
 
 SOLVING FOR HEAD 
                                                   Max.-Head-Change                         Max.-Flux-Residual
  Residual-Control   Outer-Iter.   Inner-Iter.     Column Row Layer    Maximum-Head-Change  Column Row Layer    Maximum-Flux-Residual          L2-NORM 
          0                 1           2             4    5     1       0.2206270852E-01       4    5    1         0.1182689589E+01      0.3195758429E+01
          0                 2           2             4    7     1       0.3198959858E-02       4    7    1         0.1701062401E+00      0.3862994403E+00
          0                 3           2             4    7     1       0.4716143379E-03       4    7    1         0.2497937709E-01      0.4573602374E-01
          0                 4           1             4    7     1       0.6956811771E-04       4    7    1         0.3688959401E-02      0.6303603133E-02

    ------------------------------------------------
       NWT REQUIRED            4 OUTER ITERATIONS 
       AND A TOTAL OF          7 INNER ITERATIONS.
    ------------------------------------------------

 NO OUTPUT CONTROL FOR STRESS PERIOD   36   TIME STEP    3
 
 SOLVING FOR HEAD 
                                                   Max.-Head-Change                         Max.-Flux-Residual
  Residual-Control   Outer-Iter.   Inner-Iter.     Column Row Layer    Maximum-Head-Change  Column Row Layer    Maximum-Flux-Residual          L2-NORM 
          0                 1           2             4    5     1       0.2144037483E-01       4    5    1         0.1148677008E+01      0.3148557130E+01
          0                 2           2             4    7     1       0.3130660602E-02       4    7    1         0.1663650853E+00      0.3816067458E+00
          0                 3           2             4    7     1       0.4620714998E-03       4    7    1         0.2445723547E-01      0.4535229468E-01
          0                 4           1             4    7     1       0.6823278160E-04       4    7    1         0.3615953107E-02      0.6262729311E-02

    ------------------------------------------------
       NWT REQUIRED            4 OUTER ITERATIONS 
       AND A TOTAL OF          7 INNER ITERATIONS.
    ------------------------------------------------

 NO OUTPUT CONTROL FOR STRESS PERIOD   36   TIME STEP    4
 
 SOLVING FOR HEAD 
                                                   Max.-Head-Change                         Max.-Flux-Residual
  Residual-Control   Outer-Iter.   Inner-Iter.     Column Row Layer    Maximum-Head-Change  Column Row Layer    Maximum-Flux-Residual          L2-NORM 
          0                 1           2             4    5     1       0.2084953329E-01       4    5    1         0.1116399813E+01      0.3103544913E+01
          0                 2           2             4    7     1       0.3066681329E-02       4    7    1         0.1628646248E+00      0.3771085343E+00
          0                 3           2             4    7     1       0.4531134824E-03       4    7    1         0.2396770858E-01      0.4497937484E-01
          0                 4           1             4    7     1       0.6697658875E-04       4    7    1         0.3547359947E-02      0.6222292877E-02

    ------------------------------------------------
       NWT REQUIRED            4 OUTER ITERATIONS 
       AND A TOTAL OF          7 INNER ITERATIONS.
    ------------------------------------------------

 NO OUTPUT CONTROL FOR STRESS PERIOD   36   TIME STEP    5
 
 SOLVING FOR HEAD 
                                                   Max.-Head-Change                         Max.-Flux-Residual
  Residual-Control   Outer-Iter.   Inner-Iter.     Column Row Layer    Maximum-Head-Change  Column Row Layer    Maximum-Flux-Residual          L2-NORM 
          0                 1           2             4    7     1       0.2033629488E-01       4    5    1         0.1085749154E+01      0.3060517922E+01
          0                 2           2             4    7     1       0.3006636488E-02       4    7    1         0.1595833396E+00      0.3727831628E+00
          0                 3           2             4    7     1       0.4446881709E-03       4    7    1         0.2350788886E-01      0.4461526128E-01
          0                 4           1             4    7     1       0.6579249592E-04       4    7    1         0.3482786896E-02      0.6182102593E-02

    ------------------------------------------------
       NWT REQUIRED            4 OUTER ITERATIONS 
       AND A TOTAL OF          7 INNER ITERATIONS.
    ------------------------------------------------

 NO OUTPUT CONTROL FOR STRESS PERIOD   36   TIME STEP    6
 
 SOLVING FOR HEAD 
                                                   Max.-Head-Change                         Max.-Flux-Residual
  Residual-Control   Outer-Iter.   Inner-Iter.     Column Row Layer    Maximum-Head-Change  Column Row Layer    Maximum-Flux-Residual          L2-NORM 
          0                 1           2             4    7     1       0.1993429177E-01       4    5    1         0.1056630860E+01      0.3019315069E+01
          0                 2           2             4    7     1       0.2950197347E-02       4    7    1         0.1565028279E+00      0.3686100786E+00
          0                 3           2             4    7     1       0.4367515027E-03       4    7    1         0.2307530355E-01      0.4425846236E-01
          0                 4           1             4    7     1       0.6467460160E-04       4    7    1         0.3421902868E-02      0.6142056140E-02

    ------------------------------------------------
       NWT REQUIRED            4 OUTER ITERATIONS 
       AND A TOTAL OF          7 INNER ITERATIONS.
    ------------------------------------------------

 NO OUTPUT CONTROL FOR STRESS PERIOD   36   TIME STEP    7
 
 SOLVING FOR HEAD 
                                                   Max.-Head-Change                         Max.-Flux-Residual
  Residual-Control   Outer-Iter.   Inner-Iter.     Column Row Layer    Maximum-Head-Change  Column Row Layer    Maximum-Flux-Residual          L2-NORM 
          0                 1           2             4    7     1       0.1955653150E-01       4    7    1         0.1030216811E+01      0.2979780807E+01
          0                 2           2             4    7     1       0.2897044800E-02       4    7    1         0.1536053081E+00      0.3645870719E+00
          0                 3           2             4    7     1       0.4292602922E-03       4    7    1         0.2266754373E-01      0.4390850669E-01
          0                 4           1             4    7     1       0.6361706271E-04       4    7    1         0.3364382060E-02      0.6102255455E-02

    ------------------------------------------------
       NWT REQUIRED            4 OUTER ITERATIONS 
       AND A TOTAL OF          7 INNER ITERATIONS.
    ------------------------------------------------

 NO OUTPUT CONTROL FOR STRESS PERIOD   36   TIME STEP    8
 
 SOLVING FOR HEAD 
                                                   Max.-Head-Change                         Max.-Flux-Residual
  Residual-Control   Outer-Iter.   Inner-Iter.     Column Row Layer    Maximum-Head-Change  Column Row Layer    Maximum-Flux-Residual          L2-NORM 
          0                 1           2             4    7     1       0.1920100169E-01       4    7    1         0.1010860246E+01      0.2941813887E+01
          0                 2           2             4    7     1       0.2846907440E-02       4    7    1         0.1508756190E+00      0.3606901562E+00
          0                 3           2             4    7     1       0.4221779503E-03       4    7    1         0.2228256419E-01      0.4356314446E-01
          0                 4           1             4    7     1       0.6261495029E-04       4    7    1         0.3309948866E-02      0.6062001698E-02

    ------------------------------------------------
       NWT REQUIRED            4 OUTER ITERATIONS 
       AND A TOTAL OF          7 INNER ITERATIONS.
    ------------------------------------------------

 NO OUTPUT CONTROL FOR STRESS PERIOD   36   TIME STEP    9
 
 SOLVING FOR HEAD 
                                                   Max.-Head-Change                         Max.-Flux-Residual
  Residual-Control   Outer-Iter.   Inner-Iter.     Column Row Layer    Maximum-Head-Change  Column Row Layer    Maximum-Flux-Residual          L2-NORM 
          0                 1           2             4    7     1       0.1886575026E-01       4    7    1         0.9926330646E+00      0.2905262509E+01
          0                 2           2             4    7     1       0.2799523236E-02       4    7    1         0.1482990881E+00      0.3569102275E+00
          0                 3           2             4    7     1       0.4154693300E-03       4    7    1         0.2191839400E-01      0.4322259096E-01
          0                 4           1             4    7     1       0.6166355339E-04       4    7    1         0.3258339092E-02      0.6021892650E-02

    ------------------------------------------------
       NWT REQUIRED            4 OUTER ITERATIONS 
       AND A TOTAL OF          7 INNER ITERATIONS.
    ------------------------------------------------

 NO OUTPUT CONTROL FOR STRESS PERIOD   36   TIME STEP   10
 
 SOLVING FOR HEAD 
                                                   Max.-Head-Change                         Max.-Flux-Residual
  Residual-Control   Outer-Iter.   Inner-Iter.     Column Row Layer    Maximum-Head-Change  Column Row Layer    Maximum-Flux-Residual          L2-NORM 
          0                 1           2             4    7     1       0.1854913849E-01       4    7    1         0.9754435411E+00      0.2870007900E+01
          0                 2           2             4    7     1       0.2754671579E-02       4    7    1         0.1458633843E+00      0.3532359635E+00
          0                 3           2             4    7     1       0.4091047437E-03       4    7    1         0.2157337165E-01      0.4288578377E-01
          0                 4           1             4    7     1       0.6075887912E-04       4    7    1         0.3209329315E-02      0.5981664831E-02

    ------------------------------------------------
       NWT REQUIRED            4 OUTER ITERATIONS 
       AND A TOTAL OF          7 INNER ITERATIONS.
    ------------------------------------------------

 NO OUTPUT CONTROL FOR STRESS PERIOD   36   TIME STEP   11
 
 SOLVING FOR HEAD 
                                                   Max.-Head-Change                         Max.-Flux-Residual
  Residual-Control   Outer-Iter.   Inner-Iter.     Column Row Layer    Maximum-Head-Change  Column Row Layer    Maximum-Flux-Residual          L2-NORM 
          0                 1           2             4    7     1       0.1824941095E-01       4    7    1         0.9591939460E+00      0.2835953039E+01
          0                 2           2             4    7     1       0.2712113923E-02       4    7    1         0.1435552456E+00      0.3496583138E+00
          0                 3           2             4    7     1       0.4030517730E-03       4    7    1         0.2124569329E-01      0.4255218304E-01
          0                 4           1             4    7     1       0.5989652200E-04       4    7    1         0.3162674469E-02      0.5941290841E-02

    ------------------------------------------------
       NWT REQUIRED            4 OUTER ITERATIONS 
       AND A TOTAL OF          7 INNER ITERATIONS.
    ------------------------------------------------

 NO OUTPUT CONTROL FOR STRESS PERIOD   36   TIME STEP   12
 
 SOLVING FOR HEAD 
                                                   Max.-Head-Change                         Max.-Flux-Residual
  Residual-Control   Outer-Iter.   Inner-Iter.     Column Row Layer    Maximum-Head-Change  Column Row Layer    Maximum-Flux-Residual          L2-NORM 
          0                 1           2             4    7     1       0.1796537311E-01       4    7    1         0.9438169345E+00      0.2803024136E+01
          0                 2           2             4    7     1       0.2671691340E-02       4    7    1         0.1413657317E+00      0.3461715442E+00
          0                 3           2             4    7     1       0.3972893217E-03       4    7    1         0.2093416788E-01      0.4222158026E-01
          0                 4           1             4    7     1       0.5907368931E-04       4    7    1         0.3118216794E-02      0.5900794142E-02

    ------------------------------------------------
       NWT REQUIRED            4 OUTER ITERATIONS 
       AND A TOTAL OF          7 INNER ITERATIONS.
    ------------------------------------------------

 NO OUTPUT CONTROL FOR STRESS PERIOD   36   TIME STEP   13
 
 SOLVING FOR HEAD 
                                                   Max.-Head-Change                         Max.-Flux-Residual
  Residual-Control   Outer-Iter.   Inner-Iter.     Column Row Layer    Maximum-Head-Change  Column Row Layer    Maximum-Flux-Residual          L2-NORM 
          0                 1           2             4    7     1       0.1769567555E-01       4    7    1         0.9292374283E+00      0.2771129931E+01
          0                 2           2             4    7     1       0.2633220478E-02       4    7    1         0.1392846430E+00      0.3427664775E+00
          0                 3           2             4    7     1       0.3917924715E-03       4    7    1         0.2063740936E-01      0.4189443697E-01
          0                 4           1             4    7     1       0.5828699416E-04       4    7    1         0.3075767907E-02      0.5860181143E-02

    ------------------------------------------------
       NWT REQUIRED            4 OUTER ITERATIONS 
       AND A TOTAL OF          7 INNER ITERATIONS.
    ------------------------------------------------

 NO OUTPUT CONTROL FOR STRESS PERIOD   36   TIME STEP   14
 
 SOLVING FOR HEAD 
                                                   Max.-Head-Change                         Max.-Flux-Residual
  Residual-Control   Outer-Iter.   Inner-Iter.     Column Row Layer    Maximum-Head-Change  Column Row Layer    Maximum-Flux-Residual          L2-NORM 
          0                 1           2             4    7     1       0.1743895915E-01       4    7    1         0.9153795628E+00      0.2740199915E+01
          0                 2           2             4    7     1       0.2596517548E-02       4    7    1         0.1373017314E+00      0.3394164031E+00
          0                 3           2             4    7     1       0.3865363779E-03       4    7    1         0.2035403102E-01      0.4156674870E-01
          0                 4           1             4    7     1       0.5753307969E-04       4    7    1         0.3035140448E-02      0.5819336946E-02

    ------------------------------------------------
       NWT REQUIRED            4 OUTER ITERATIONS 
       AND A TOTAL OF          7 INNER ITERATIONS.
    ------------------------------------------------

 NO OUTPUT CONTROL FOR STRESS PERIOD   36   TIME STEP   15
 
 SOLVING FOR HEAD 
                                                   Max.-Head-Change                         Max.-Flux-Residual
  Residual-Control   Outer-Iter.   Inner-Iter.     Column Row Layer    Maximum-Head-Change  Column Row Layer    Maximum-Flux-Residual          L2-NORM 
          0                 1           2             4    7     1       0.1719438786E-01       4    7    1         0.9021961902E+00      0.2710207884E+01
          0                 2           2             4    7     1       0.2561471788E-02       4    7    1         0.1354107409E+00      0.3361855647E+00
          0                 3           2             4    7     1       0.3815064026E-03       4    7    1         0.2008320496E-01      0.4124397752E-01
          0                 4           1             4    7     1       0.5681001616E-04       4    7    1         0.2996225097E-02      0.5778429044E-02

    ------------------------------------------------
       NWT REQUIRED            4 OUTER ITERATIONS 
       AND A TOTAL OF          7 INNER ITERATIONS.
    ------------------------------------------------

 NO OUTPUT CONTROL FOR STRESS PERIOD   36   TIME STEP   16
 
 SOLVING FOR HEAD 
                                                   Max.-Head-Change                         Max.-Flux-Residual
  Residual-Control   Outer-Iter.   Inner-Iter.     Column Row Layer    Maximum-Head-Change  Column Row Layer    Maximum-Flux-Residual          L2-NORM 
          0                 1           2             4    7     1       0.1696080670E-01       4    7    1         0.8896231249E+00      0.2681062073E+01
          0                 2           2             4    7     1       0.2527925237E-02       4    7    1         0.1336029343E+00      0.3329989570E+00
          0                 3           2             4    7     1       0.3766809392E-03       4    7    1         0.1982373260E-01      0.4092229790E-01
          0                 4           1             4    7     1       0.5611484928E-04       4    7    1         0.2958858161E-02      0.5737383888E-02

    ------------------------------------------------
       NWT REQUIRED            4 OUTER ITERATIONS 
       AND A TOTAL OF          7 INNER ITERATIONS.
    ------------------------------------------------

 NO OUTPUT CONTROL FOR STRESS PERIOD   36   TIME STEP   17
 
 SOLVING FOR HEAD 
                                                   Max.-Head-Change                         Max.-Flux-Residual
  Residual-Control   Outer-Iter.   Inner-Iter.     Column Row Layer    Maximum-Head-Change  Column Row Layer    Maximum-Flux-Residual          L2-NORM 
          0                 1           2             4    7     1       0.1673729711E-01       4    7    1         0.8776089016E+00      0.2652709616E+01
          0                 2           2             4    7     1       0.2495754791E-02       4    7    1         0.1318714045E+00      0.3298752828E+00
          0                 3           2             4    7     1       0.3720435116E-03       4    7    1         0.1957468920E-01      0.4060253170E-01
          0                 4           1             4    7     1       0.5544537667E-04       4    7    1         0.2922915890E-02      0.5696245323E-02

    ------------------------------------------------
       NWT REQUIRED            4 OUTER ITERATIONS 
       AND A TOTAL OF          7 INNER ITERATIONS.
    ------------------------------------------------

 NO OUTPUT CONTROL FOR STRESS PERIOD   36   TIME STEP   18
 
 SOLVING FOR HEAD 
                                                   Max.-Head-Change                         Max.-Flux-Residual
  Residual-Control   Outer-Iter.   Inner-Iter.     Column Row Layer    Maximum-Head-Change  Column Row Layer    Maximum-Flux-Residual          L2-NORM 
          0                 1           2             4    7     1       0.1652315477E-01       4    7    1         0.8661142331E+00      0.2625099739E+01
          0                 2           2             4    7     1       0.2464864553E-02       4    7    1         0.1302108380E+00      0.3268505358E+00
          0                 3           2             4    7     1       0.3675810099E-03       4    7    1         0.1933534783E-01      0.4028590342E-01
          0                 4           1             4    7     1       0.5479980568E-04       4    7    1         0.2888298960E-02      0.5655011440E-02

    ------------------------------------------------
       NWT REQUIRED            4 OUTER ITERATIONS 
       AND A TOTAL OF          7 INNER ITERATIONS.
    ------------------------------------------------

 NO OUTPUT CONTROL FOR STRESS PERIOD   36   TIME STEP   19
 
 SOLVING FOR HEAD 
                                                   Max.-Head-Change                         Max.-Flux-Residual
  Residual-Control   Outer-Iter.   Inner-Iter.     Column Row Layer    Maximum-Head-Change  Column Row Layer    Maximum-Flux-Residual          L2-NORM 
          0                 1           2             4    7     1       0.1631761359E-01       4    7    1         0.8550960219E+00      0.2598168738E+01
          0                 2           2             4    7     1       0.2435153604E-02       4    7    1         0.1286154919E+00      0.3237993560E+00
          0                 3           2             4    7     1       0.3632803423E-03       4    7    1         0.1910495880E-01      0.3996824992E-01
          0                 4           1             4    7     1       0.5417644880E-04       4    7    1         0.2854910462E-02      0.5613738155E-02

    ------------------------------------------------
       NWT REQUIRED            4 OUTER ITERATIONS 
       AND A TOTAL OF          7 INNER ITERATIONS.
    ------------------------------------------------

 NO OUTPUT CONTROL FOR STRESS PERIOD   36   TIME STEP   20
 
 SOLVING FOR HEAD 
                                                   Max.-Head-Change                         Max.-Flux-Residual
  Residual-Control   Outer-Iter.   Inner-Iter.     Column Row Layer    Maximum-Head-Change  Column Row Layer    Maximum-Flux-Residual          L2-NORM 
          0                 1           2             4    7     1       0.1611996900E-01       4    7    1         0.8445155353E+00      0.2571831426E+01
          0                 2           2             4    7     1       0.2406523126E-02       4    7    1         0.1270799939E+00      0.3208353086E+00
          0                 3           2             4    7     1       0.3591274838E-03       4    7    1         0.1888276235E-01      0.3965333869E-01
          0                 4           1             4    7     1       0.5357331427E-04       4    7    1         0.2822642414E-02      0.5572384144E-02

    ------------------------------------------------
       NWT REQUIRED            4 OUTER ITERATIONS 
       AND A TOTAL OF          7 INNER ITERATIONS.
    ------------------------------------------------

 NO OUTPUT CONTROL FOR STRESS PERIOD   36   TIME STEP   21
 
 SOLVING FOR HEAD 
                                                   Max.-Head-Change                         Max.-Flux-Residual
  Residual-Control   Outer-Iter.   Inner-Iter.     Column Row Layer    Maximum-Head-Change  Column Row Layer    Maximum-Flux-Residual          L2-NORM 
          0                 1           2             4    7     1       0.1592971979E-01       4    7    1         0.8343440680E+00      0.2546138729E+01
          0                 2           2             4    7     1       0.2378908753E-02       4    7    1         0.1256006378E+00      0.3179238157E+00
          0                 3           2             4    7     1       0.3551142890E-03       4    7    1         0.1866828475E-01      0.3934040447E-01
          0                 4           1             4    7     1       0.5298938277E-04       4    7    1         0.2791435231E-02      0.5531039497E-02

    ------------------------------------------------
       NWT REQUIRED            4 OUTER ITERATIONS 
       AND A TOTAL OF          7 INNER ITERATIONS.
    ------------------------------------------------

 NO OUTPUT CONTROL FOR STRESS PERIOD   36   TIME STEP   22
 
 SOLVING FOR HEAD 
                                                   Max.-Head-Change                         Max.-Flux-Residual
  Residual-Control   Outer-Iter.   Inner-Iter.     Column Row Layer    Maximum-Head-Change  Column Row Layer    Maximum-Flux-Residual          L2-NORM 
          0                 1           2             4    7     1       0.1574600942E-01       4    7    1         0.8245344998E+00      0.2521042595E+01
          0                 2           2             4    7     1       0.2352191624E-02       4    7    1         0.1241708956E+00      0.3150598913E+00
          0                 3           2             4    7     1       0.3512125532E-03       4    7    1         0.1846061911E-01      0.3901636500E-01
          0                 4           1             4    7     1       0.5241737056E-04       4    7    1         0.2761009375E-02      0.5486746674E-02

    ------------------------------------------------
       NWT REQUIRED            4 OUTER ITERATIONS 
       AND A TOTAL OF          7 INNER ITERATIONS.
    ------------------------------------------------

 NO OUTPUT CONTROL FOR STRESS PERIOD   36   TIME STEP   23
 
 SOLVING FOR HEAD 
                                                   Max.-Head-Change                         Max.-Flux-Residual
  Residual-Control   Outer-Iter.   Inner-Iter.     Column Row Layer    Maximum-Head-Change  Column Row Layer    Maximum-Flux-Residual          L2-NORM 
          0                 1           2             4    7     1       0.1556855810E-01       4    7    1         0.8150715402E+00      0.2496519769E+01
          0                 2           2             4    7     1       0.2326308855E-02       4    7    1         0.1227886250E+00      0.3122399071E+00
          0                 3           2             4    7     1       0.3474393193E-03       4    7    1         0.1825915448E-01      0.3871108903E-01
          0                 4           1             4    7     1       0.5186753957E-04       4    7    1         0.2731649947E-02      0.5446344998E-02

    ------------------------------------------------
       NWT REQUIRED            4 OUTER ITERATIONS 
       AND A TOTAL OF          7 INNER ITERATIONS.
    ------------------------------------------------

 NO OUTPUT CONTROL FOR STRESS PERIOD   36   TIME STEP   24
 
 SOLVING FOR HEAD 
                                                   Max.-Head-Change                         Max.-Flux-Residual
  Residual-Control   Outer-Iter.   Inner-Iter.     Column Row Layer    Maximum-Head-Change  Column Row Layer    Maximum-Flux-Residual          L2-NORM 
          0                 1           2             4    7     1       0.1539685667E-01       4    7    1         0.8059268636E+00      0.2472536793E+01
          0                 2           2             4    7     1       0.2301238400E-02       4    7    1         0.1214499774E+00      0.3094645084E+00
          0                 3           2             4    7     1       0.3437751511E-03       4    7    1         0.1806398676E-01      0.3840249244E-01
          0                 4           1             4    7     1       0.5133150996E-04       4    7    1         0.2703091948E-02      0.5404888109E-02

    ------------------------------------------------
       NWT REQUIRED            4 OUTER ITERATIONS 
       AND A TOTAL OF          7 INNER ITERATIONS.
    ------------------------------------------------

 NO OUTPUT CONTROL FOR STRESS PERIOD   36   TIME STEP   25
 
 SOLVING FOR HEAD 
                                                   Max.-Head-Change                         Max.-Flux-Residual
  Residual-Control   Outer-Iter.   Inner-Iter.     Column Row Layer    Maximum-Head-Change  Column Row Layer    Maximum-Flux-Residual          L2-NORM 
          0                 1           2             4    7     1       0.1523047988E-01       4    7    1         0.7970758394E+00      0.2449065683E+01
          0                 2           2             4    7     1       0.2276903295E-02       4    7    1         0.1201518356E+00      0.3067314421E+00
          0                 3           2             4    7     1       0.3402125919E-03       4    7    1         0.1787441745E-01      0.3809566990E-01
          0                 4           1             4    7     1       0.5080952759E-04       4    7    1         0.2675307491E-02      0.5363483190E-02

    ------------------------------------------------
       NWT REQUIRED            4 OUTER ITERATIONS 
       AND A TOTAL OF          7 INNER ITERATIONS.
    ------------------------------------------------

 NO OUTPUT CONTROL FOR STRESS PERIOD   36   TIME STEP   26
 
 SOLVING FOR HEAD 
                                                   Max.-Head-Change                         Max.-Flux-Residual
  Residual-Control   Outer-Iter.   Inner-Iter.     Column Row Layer    Maximum-Head-Change  Column Row Layer    Maximum-Flux-Residual          L2-NORM 
          0                 1           2             3    7     1       0.1511668500E-01       4    7    1         0.7884888100E+00      0.2426095588E+01
          0                 2           2             4    7     1       0.2253232731E-02       4    7    1         0.1188902453E+00      0.3040408681E+00
          0                 3           2             4    7     1       0.3367421555E-03       4    7    1         0.1768991321E-01      0.3779088492E-01
          0                 4           1             4    7     1       0.5030032539E-04       4    7    1         0.2648225390E-02      0.5322179414E-02

    ------------------------------------------------
       NWT REQUIRED            4 OUTER ITERATIONS 
       AND A TOTAL OF          7 INNER ITERATIONS.
    ------------------------------------------------

 NO OUTPUT CONTROL FOR STRESS PERIOD   36   TIME STEP   27
 
 SOLVING FOR HEAD 
                                                   Max.-Head-Change                         Max.-Flux-Residual
  Residual-Control   Outer-Iter.   Inner-Iter.     Column Row Layer    Maximum-Head-Change  Column Row Layer    Maximum-Flux-Residual          L2-NORM 
          0                 1           2             3    7     1       0.1504627155E-01       4    7    1         0.7801536140E+00      0.2403610208E+01
          0                 2           2             4    7     1       0.2230196040E-02       4    7    1         0.1176635127E+00      0.3013914920E+00
          0                 3           2             4    7     1       0.3333596041E-03       4    7    1         0.1751024086E-01      0.3748809733E-01
          0                 4           1             4    7     1       0.4980331861E-04       4    7    1         0.2621813367E-02      0.5280982388E-02

    ------------------------------------------------
       NWT REQUIRED            4 OUTER ITERATIONS 
       AND A TOTAL OF          7 INNER ITERATIONS.
    ------------------------------------------------

 NO OUTPUT CONTROL FOR STRESS PERIOD   36   TIME STEP   28
 
 SOLVING FOR HEAD 
                                                   Max.-Head-Change                         Max.-Flux-Residual
  Residual-Control   Outer-Iter.   Inner-Iter.     Column Row Layer    Maximum-Head-Change  Column Row Layer    Maximum-Flux-Residual          L2-NORM 
          0                 1           2             3    7     1       0.1497572490E-01       4    7    1         0.7720516573E+00      0.2381574096E+01
          0                 2           2             4    7     1       0.2207748416E-02       4    7    1         0.1164691346E+00      0.2987806553E+00
          0                 3           2             4    7     1       0.3300589010E-03       4    7    1         0.1733506284E-01      0.3718727299E-01
          0                 4           1             4    7     1       0.4931769313E-04       4    7    1         0.2596025959E-02      0.5239903402E-02

    ------------------------------------------------
       NWT REQUIRED            4 OUTER ITERATIONS 
       AND A TOTAL OF          7 INNER ITERATIONS.
    ------------------------------------------------

 NO OUTPUT CONTROL FOR STRESS PERIOD   36   TIME STEP   29
 
 SOLVING FOR HEAD 
                                                   Max.-Head-Change                         Max.-Flux-Residual
  Residual-Control   Outer-Iter.   Inner-Iter.     Column Row Layer    Maximum-Head-Change  Column Row Layer    Maximum-Flux-Residual          L2-NORM 
          0                 1           2             3    7     1       0.1490484882E-01       4    7    1         0.7641660667E+00      0.2359977911E+01
          0                 2           2             4    7     1       0.2185850100E-02       4    7    1         0.1153048596E+00      0.2962084774E+00
          0                 3           2             4    7     1       0.3268348005E-03       4    7    1         0.1716408235E-01      0.3688862753E-01
          0                 4           1             4    7     1       0.4884276127E-04       4    7    1         0.2570824023E-02      0.5198985531E-02

    ------------------------------------------------
       NWT REQUIRED            4 OUTER ITERATIONS 
       AND A TOTAL OF          7 INNER ITERATIONS.
    ------------------------------------------------

 NO OUTPUT CONTROL FOR STRESS PERIOD   36   TIME STEP   30



 STREAM LISTING     PERIOD     36   STEP       30

 LAYER ROW COL. STREAM  RCH.  FLOW INTO     FLOW TO   FLOW OUT OF   OVRLND.     DIRECT     STREAM       STREAM     STREAM     STREAM   STREAMBED  STREAMBED
                SEG.NO.  NO.  STRM. RCH.    AQUIFER    STRM. RCH.    RUNOFF     PRECIP       ET          HEAD       DEPTH      WIDTH   CONDCTNC.   GRADIENT

   1    1    1     1     1    9.7497E+00  1.4616E-01   9.6035E+00  0.000E+00  0.000E+00  0.000E+00  1.09394E+03  8.903E-01  8.349E+00  3.757E-02  1.297E+00
   1    2    2     1     2    9.6035E+00  2.2466E-01   9.3789E+00  0.000E+00  0.000E+00  0.000E+00  1.08894E+03  8.846E-01  8.262E+00  5.783E-02  1.295E+00
   1    3    3     1     3    9.3789E+00  1.8995E-01   9.1889E+00  0.000E+00  0.000E+00  0.000E+00  1.08330E+03  8.782E-01  8.163E+00  4.898E-02  1.293E+00
   1    3    4     1     4    9.1889E+00  1.7356E-01   9.0154E+00  0.000E+00  0.000E+00  0.000E+00  1.07828E+03  8.725E-01  8.076E+00  4.482E-02  1.291E+00
   1    4    5     2     1    7.0154E+00  2.7742E-01   6.7380E+00  0.000E+00  0.000E+00  0.000E+00  1.07249E+03  5.566E-01  1.200E+01  7.800E-02  1.186E+00
   1    5    6     2     2    6.7380E+00  2.1268E-01   6.5253E+00  0.000E+00  0.000E+00  0.000E+00  1.06705E+03  5.446E-01  1.200E+01  6.000E-02  1.182E+00
   1    6    6     2     3    6.5253E+00  2.1205E-01   6.3132E+00  0.000E+00  0.000E+00  0.000E+00  1.06233E+03  5.341E-01  1.200E+01  6.000E-02  1.178E+00
   1    7    6     2     4    6.3132E+00  2.1141E-01   6.1018E+00  0.000E+00  0.000E+00  0.000E+00  1.05760E+03  5.235E-01  1.200E+01  6.000E-02  1.174E+00
   1    8    6     2     5    6.1018E+00  2.1076E-01   5.8911E+00  0.000E+00  0.000E+00  0.000E+00  1.05287E+03  5.127E-01  1.200E+01  6.000E-02  1.171E+00
   1    3    5     3     1    2.0000E+00  2.8252E-01   1.7175E+00  0.000E+00  0.000E+00  0.000E+00  1.07555E+03  1.909E+00  9.636E+00  7.227E-02  1.955E+00
   1    3    6     3     2    1.7175E+00  2.4905E-01   1.4684E+00  0.000E+00  0.000E+00  0.000E+00  1.07264E+03  1.727E+00  8.909E+00  6.682E-02  1.864E+00
   1    3    7     3     3    1.4684E+00  1.9718E-01   1.2712E+00  0.000E+00  0.000E+00  0.000E+00  1.06987E+03  1.555E+00  8.218E+00  5.547E-02  1.777E+00
   1    4    8     3     4    1.2712E+00  2.2567E-01   1.0456E+00  0.000E+00  0.000E+00  0.000E+00  1.06682E+03  1.364E+00  7.455E+00  6.709E-02  1.682E+00
   1    5    8     3     5    1.0456E+00  1.5790E-01   8.8768E-01  0.000E+00  0.000E+00  0.000E+00  1.06362E+03  1.164E+00  6.655E+00  4.991E-02  1.582E+00
   1    6    8     3     6    8.8768E-01  5.5980E-02   8.3170E-01  0.000E+00  0.000E+00  0.000E+00  1.06158E+03  1.036E+00  6.145E+00  1.844E-02  1.518E+00
   1    5   10     4     1    1.0000E+01  9.0919E-02   9.9091E+00  0.000E+00  0.000E+00  0.000E+00  1.07836E+03  6.368E-01  1.000E+01  2.500E-02  1.212E+00
   1    5    9     4     2    9.9091E+00  1.8158E-01   9.7275E+00  0.000E+00  0.000E+00  0.000E+00  1.07154E+03  6.315E-01  1.000E+01  5.000E-02  1.211E+00
   1    6    8     4     3    9.7275E+00  1.2689E-01   9.6006E+00  0.000E+00  0.000E+00  0.000E+00  1.06381E+03  6.256E-01  1.000E+01  3.500E-02  1.209E+00
   1    6    8     5     1    1.0432E+01  2.2686E-01   1.0205E+01  0.000E+00  0.000E+00  0.000E+00  1.05868E+03  6.790E-01  1.542E+01  6.166E-02  1.226E+00
   1    7    7     5     2    1.0205E+01  2.7894E-01   9.9265E+00  0.000E+00  0.000E+00  0.000E+00  1.05417E+03  6.732E-01  1.519E+01  7.594E-02  1.224E+00
   1    8    7     5     3    9.9265E+00  1.9221E-01   9.7343E+00  0.000E+00  0.000E+00  0.000E+00  1.04992E+03  6.676E-01  1.497E+01  5.241E-02  1.223E+00
   1    8    6     5     4    9.7343E+00  1.3577E-01   9.5985E+00  0.000E+00  0.000E+00  0.000E+00  1.04691E+03  6.637E-01  1.482E+01  3.706E-02  1.221E+00
   1    9    6     6     1    1.5490E+01  2.3472E-01   1.5255E+01  0.000E+00  0.000E+00  0.000E+00  1.04364E+03  9.120E-01  1.200E+01  6.000E-02  1.304E+00
   1   10    7     6     2    1.5255E+01  2.3422E-01   1.5021E+01  0.000E+00  0.000E+00  0.000E+00  1.03909E+03  9.037E-01  1.200E+01  6.000E-02  1.301E+00
   1   11    7     6     3    1.5021E+01  2.3372E-01   1.4787E+01  0.000E+00  0.000E+00  0.000E+00  1.03453E+03  8.953E-01  1.200E+01  6.000E-02  1.298E+00
   1   12    7     6     4    1.4787E+01  2.3321E-01   1.4554E+01  0.000E+00  0.000E+00  0.000E+00  1.02998E+03  8.868E-01  1.200E+01  6.000E-02  1.296E+00
   1   13    7     6     5    1.4554E+01  6.6257E-03   1.4547E+01  0.000E+00  0.000E+00  0.000E+00  1.02679E+03  8.825E-01  1.200E+01  2.400E-02  9.202E-02
   1   14    9     7     1    1.5000E+02  1.3954E+00   1.4860E+02  0.000E+00  0.000E+00  0.000E+00  1.03987E+03  2.288E+00  5.529E+01  5.593E-01  8.316E-01
   1   13    8     7     2    1.4860E+02  2.0176E+00   1.4659E+02  0.000E+00  0.000E+00  0.000E+00  1.03478E+03  2.278E+00  5.525E+01  6.147E-01  1.094E+00
   1   13    7     7     3    1.4659E+02  1.7712E+00   1.4482E+02  0.000E+00  0.000E+00  0.000E+00  1.02969E+03  2.268E+00  5.521E+01  5.583E-01  1.057E+00
   1   13    6     8     1    1.5936E+02  1.1547E+00   1.5821E+02  0.000E+00  0.000E+00  0.000E+00  1.02475E+03  2.878E+00  4.173E+01  4.252E-01  9.052E-01
   1   13    5     8     2    1.5821E+02  4.0029E-01   1.5781E+02  0.000E+00  0.000E+00  0.000E+00  1.01850E+03  2.872E+00  4.165E+01  4.244E-01  3.144E-01
   1   13    4     8     3    1.5781E+02 -1.6577E+00   1.5947E+02  0.000E+00  0.000E+00  0.000E+00  1.01225E+03  2.877E+00  4.171E+01  4.250E+00 -1.300E-01
   1   13    3     8     4    1.5947E+02 -3.2688E+00   1.6273E+02  0.000E+00  0.000E+00  0.000E+00  1.00602E+03  2.893E+00  4.195E+01  4.275E+00 -2.549E-01
   1   13    2     8     5    1.6273E+02 -2.4867E+00   1.6522E+02  0.000E+00  0.000E+00  0.000E+00  9.99788E+02  2.913E+00  4.223E+01  4.304E+00 -1.926E-01
   1   13    1     8     6    1.6522E+02 -1.9593E+00   1.6718E+02  0.000E+00  0.000E+00  0.000E+00  9.94802E+02  2.927E+00  4.245E+01  2.595E+00 -2.517E-01
   1    8    6     9     1    0.0000E+00  0.0000E+00   0.0000E+00  0.000E+00  0.000E+00  0.000E+00  1.07875E+03  0.000E+00  4.000E+00  0.000E+00  1.000E+00
   1    8    5     9     2    0.0000E+00  0.0000E+00   0.0000E+00  0.000E+00  0.000E+00  0.000E+00  1.07825E+03  0.000E+00  4.000E+00  0.000E+00  1.000E+00





UNSATURATED ZONE PACKAGE VOLUMETRIC BUDGET FOR  TIME STEP    30 STRESS PERIOD   36
  ------------------------------------------------------------------------------



     CUMULATIVE VOLUMES      L**3       RATES FOR THIS TIME STEP      L**3/T
     ------------------                 ------------------------

           IN:                                      IN:
           ---                                      ---
        INFILTRATION =  1751898901.1080          INFILTRATION =           0.8475

          OUT:                                     OUT:
          ----                                     ----
              UZF ET =  1281093149.5501                UZF ET =           0.7500
        UZF RECHARGE =   114182575.0497          UZF RECHARGE =           1.3754

            IN - OUT =   356623176.5082              IN - OUT =          -1.2779

          STORAGE:                                 STORAGE:
          --------                                 --------
      STORAGE CHANGE =   356623427.4926        STORAGE CHANGE =          -1.2779

 PERCENT DISCREPANCY IS DIFFERENCE BETWEEN IN-OUT MINUS CHANGE IN STORAGE
 DIVIDED BY THE AVERAGE OF IN AND OUT TIMES 100

 PERCENT DISCREPANCY =          -0.00     PERCENT DISCREPANCY =           0.00






1
  VOLUMETRIC BUDGET FOR AGRICULTURAL FIELDS AT  END OF TIME STEP   30, STRESS PERIOD  36
  ------------------------------------------------------------------------------

     CUMULATIVE VOLUMES      L**3       RATES FOR THIS TIME STEP      L**3/T
     ------------------                 ------------------------

           IN:                                      IN:
           ---                                      ---
               AG WELLS  =  1086541952.0000                 AG WELLS  =           0.0000
      DIVERSION SEGMENTS =   587377792.0000        DIVERSION SEGMENTS =           0.0000
       IRRIGATION PONDS  =           0.0000         IRRIGATION PONDS  =           0.0000
           GW IRRIGATION =           0.0000             GW IRRIGATION =           0.0000
           SW IRRIGATION =           0.0000             SW IRRIGATION =           0.0000
        SYSTEM LOSSES GW =           0.0000          SYSTEM LOSSES GW =           0.0000
        SYSTEM LOSSES SW =           0.0000          SYSTEM LOSSES SW =           0.0000

                TOTAL IN =  1673919744.0000                  TOTAL IN =           0.0000

          OUT:                                     OUT:
          ----                                     ----
               AG WELLS  =           0.0000                 AG WELLS  =           0.0000
      DIVERSION SEGMENTS =           0.0000        DIVERSION SEGMENTS =           0.0000
       IRRIGATION PONDS  =           0.0000         IRRIGATION PONDS  =           0.0000
           GW IRRIGATION =  1086541952.0000             GW IRRIGATION =           0.0000
           SW IRRIGATION =   587388864.0000             SW IRRIGATION =           0.0000
        SYSTEM LOSSES GW =           0.0000          SYSTEM LOSSES GW =           0.0000
        SYSTEM LOSSES SW =           0.0000          SYSTEM LOSSES SW =           0.0000

               TOTAL OUT =  1673930752.0000                 TOTAL OUT =           0.0000

                IN - OUT =      -11008.0000                  IN - OUT =           0.0000

     PERCENT DISCREPANCY =          -0.00         PERCENT DISCREPANCY =           0.00



1
  VOLUMETRIC BUDGET FOR ENTIRE MODEL AT END OF TIME STEP   30, STRESS PERIOD  36
  ------------------------------------------------------------------------------

     CUMULATIVE VOLUMES      L**3       RATES FOR THIS TIME STEP      L**3/T
     ------------------                 ------------------------

           IN:                                      IN:
           ---                                      ---
             STORAGE     =  1623684352.0000               STORAGE     =           6.1949
       CONSTANT HEAD     =           0.0000         CONSTANT HEAD     =           0.0000
     HEAD DEP BOUNDS     =    26582968.0000       HEAD DEP BOUNDS     =           0.2898
      STREAM LEAKAGE     =  1100857856.0000        STREAM LEAKAGE     =          11.9417
        UZF RECHARGE     =   114182600.0000          UZF RECHARGE     =           1.3754
               GW ET     =           0.0000                 GW ET     =           0.0000
     SURFACE LEAKAGE     =           0.0000       SURFACE LEAKAGE     =           0.0000
           AG WELLS      =           0.0000             AG WELLS      =           0.0000

                TOTAL IN =  2865307648.0000                  TOTAL IN =          19.8018

          OUT:                                     OUT:
          ----                                     ----
             STORAGE     =   839917888.0000               STORAGE     =          10.1403
       CONSTANT HEAD     =           0.0000         CONSTANT HEAD     =           0.0000
     HEAD DEP BOUNDS     =    26513424.0000       HEAD DEP BOUNDS     =           0.2872
      STREAM LEAKAGE     =   912327296.0000        STREAM LEAKAGE     =           9.3725
        UZF RECHARGE     =           0.0000          UZF RECHARGE     =           0.0000
               GW ET     =           0.0000                 GW ET     =           0.0000
     SURFACE LEAKAGE     =           0.0000       SURFACE LEAKAGE     =           0.0000
           AG WELLS      =  1086541952.0000             AG WELLS      =           0.0000

               TOTAL OUT =  2865300480.0000                 TOTAL OUT =          19.8000

                IN - OUT =        7168.0000                  IN - OUT =       1.8787E-03

     PERCENT DISCREPANCY =           0.00         PERCENT DISCREPANCY =           0.01






         TIME SUMMARY AT END OF TIME STEP   30 IN STRESS PERIOD   36
                    SECONDS     MINUTES      HOURS       DAYS        YEARS
                    -----------------------------------------------------------
   TIME STEP LENGTH  87667.      1461.1      24.352      1.0147     2.77799E-03
 STRESS PERIOD TIME 2.63000E+06  43833.      730.56      30.440     8.33397E-02
         TOTAL TIME 9.21360E+07 1.53560E+06  25593.      1066.4      2.9196    
1
1
                            STRESS PERIOD NO.   37, LENGTH =   2630000.    
                            -----------------------------------------------

                              NUMBER OF TIME STEPS =    30

                               MULTIPLIER FOR DELT =     1.000

                            INITIAL TIME STEP SIZE =   87666.66    

 REUSING NON-PARAMETER GHB CELLS FROM LAST STRESS PERIOD

      2 GHB CELLS

 REUSING STREAM SEGMENT DATA FROM LAST STRESS PERIOD



            AREAL INFILTRATION RATE
 READING ON UNIT   19 WITH FORMAT: (FREE)              

            1           2           3           4           5           6           7           8           9          10
 ........................................................................................................................
   1   1.0000E-10  2.0000E-10   0.000       0.000       0.000       0.000       0.000       0.000       0.000       0.000    
   2   2.0000E-10  1.0000E-10  2.0000E-10   0.000       0.000      8.0000E-10  8.0000E-10  5.0000E-10   0.000       0.000    
   3    0.000      5.0000E-10  1.0000E-10  1.0000E-10  8.0000E-10  8.0000E-10  5.0000E-10  5.0000E-10   0.000       0.000    
   4   8.0000E-10  5.0000E-10  1.0000E-10  1.0000E-10  1.0000E-10  1.0000E-10  1.0000E-10  1.0000E-10  2.0000E-10   0.000    
   5   8.0000E-10  5.0000E-10  1.0000E-10  1.0000E-10  1.0000E-10  1.0000E-10  1.0000E-10  1.0000E-10  1.0000E-10  1.0000E-10
   6   8.0000E-10  5.0000E-10  5.0000E-10  2.0000E-10  2.0000E-10  1.0000E-10  1.0000E-10  1.0000E-10  1.0000E-10  5.0000E-10
   7   8.0000E-10  5.0000E-10  5.0000E-10  2.0000E-10  2.0000E-10  1.0000E-10  1.0000E-10  2.0000E-10  2.0000E-10   0.000    
   8    0.000      5.0000E-10  5.0000E-10  2.0000E-10  2.0000E-10  1.0000E-10  1.0000E-10  2.0000E-10  5.0000E-10   0.000    
   9    0.000      5.0000E-10  5.0000E-10  2.0000E-10  2.0000E-10  1.0000E-10  1.0000E-10  2.0000E-10  5.0000E-10   0.000    
  10    0.000      5.0000E-10  5.0000E-10  2.0000E-10  2.0000E-10  1.0000E-10  1.0000E-10  2.0000E-10  5.0000E-10  8.0000E-10
  11    0.000      1.0000E-10  1.0000E-10  1.0000E-10  1.0000E-10  1.0000E-10  1.0000E-10  2.0000E-10  5.0000E-10   0.000    
  12   1.0000E-10  1.0000E-10  1.0000E-10  1.0000E-10  1.0000E-10  1.0000E-10  1.0000E-10  1.0000E-10  2.0000E-10   0.000    
  13   1.0000E-10  1.0000E-10  2.0000E-10  2.0000E-10  2.0000E-10  2.0000E-10  2.0000E-10  1.0000E-10  1.0000E-10   0.000    
  14    0.000      2.0000E-10  5.0000E-10  5.0000E-10  5.0000E-10  5.0000E-10  5.0000E-10  2.0000E-10  1.0000E-10   0.000    
  15    0.000       0.000      8.0000E-10  8.0000E-10  8.0000E-10  8.0000E-10   0.000       0.000       0.000       0.000    

                  ET RATE =  5.000000E-10

 USING ET EXTINCTION DEPTH FROM PREVIOUS STRESS PERIOD. CURRENT PERIOD IS:      37

 USING EXTINCTION WATER CONTENT FROM PREVIOUS STRESS PERIOD. CURRENT PERIOD IS:      37

 USING AIR ENTRY PRESSURE FROM PREVIOUS STRESS PERIOD. CURRENT PERIOD IS:      37

 USING ROOT PRESSURE HEAD FROM PREVIOUS STRESS PERIOD. CURRENT PERIOD IS:      37

 USING ROOT ACTIVITY FROM PREVIOUS STRESS PERIOD. CURRENT PERIOD IS:      37

 PROCESSING AG STRESS PERIOD DATA

 READING AG STRESS PERIOD DATA

 READING IRRIGATION SEGMENT

 READING IRRIGATION WELL

 READING SUPPLEMENTAL WELL

 NO IRRPOND OR REUSING IRRPOND DATA FROM LAST STRESS PERIOD

 END PROCESSING AG STRESS PERIOD DATA OPTIONS
 
 SOLVING FOR HEAD 
                                                   Max.-Head-Change                         Max.-Flux-Residual
  Residual-Control   Outer-Iter.   Inner-Iter.     Column Row Layer    Maximum-Head-Change  Column Row Layer    Maximum-Flux-Residual          L2-NORM 
          0                 1           2             3    7     1       0.1483417262E-01       4    7    1         0.7564889449E+00      0.2339469488E+01
          0                 2           2             4    7     1       0.2164479878E-02       4    7    1         0.1141695702E+00      0.2937227389E+00
          0                 3           2             4    7     1       0.3236841983E-03       4    7    1         0.1699713319E-01      0.3659386450E-01
          0                 4           1             4    7     1       0.4837806696E-04       4    7    1         0.2546183407E-02      0.5158198955E-02

    ------------------------------------------------
       NWT REQUIRED            4 OUTER ITERATIONS 
       AND A TOTAL OF          7 INNER ITERATIONS.
    ------------------------------------------------

 NO OUTPUT CONTROL FOR STRESS PERIOD   37   TIME STEP    1
 
 SOLVING FOR HEAD 
                                                   Max.-Head-Change                         Max.-Flux-Residual
  Residual-Control   Outer-Iter.   Inner-Iter.     Column Row Layer    Maximum-Head-Change  Column Row Layer    Maximum-Flux-Residual          L2-NORM 
          0                 1           2             3    7     1       0.1476348389E-01       4    7    1         0.7489909345E+00      0.2320879210E+01
          0                 2           2             4    7     1       0.2143563605E-02       4    7    1         0.1130591874E+00      0.2913852301E+00
          0                 3           2             4    7     1       0.3205967877E-03       4    7    1         0.1683365018E-01      0.3630514263E-01
          0                 4           1             4    7     1       0.4792217443E-04       4    7    1         0.2522025374E-02      0.5117517021E-02

    ------------------------------------------------
       NWT REQUIRED            4 OUTER ITERATIONS 
       AND A TOTAL OF          7 INNER ITERATIONS.
    ------------------------------------------------

 NO OUTPUT CONTROL FOR STRESS PERIOD   37   TIME STEP    2
 
 SOLVING FOR HEAD 
                                                   Max.-Head-Change                         Max.-Flux-Residual
  Residual-Control   Outer-Iter.   Inner-Iter.     Column Row Layer    Maximum-Head-Change  Column Row Layer    Maximum-Flux-Residual          L2-NORM 
          0                 1           2             3    7     1       0.1469257260E-01       4    7    1         0.7416739575E+00      0.2300405513E+01
          0                 2           2             4    7     1       0.2123110661E-02       4    7    1         0.1119741213E+00      0.2889110381E+00
          0                 3           2             4    7     1       0.3175743283E-03       4    7    1         0.1667371522E-01      0.3601178336E-01
          0                 4           1             4    7     1       0.4747539732E-04       4    7    1         0.2498364871E-02      0.5076956814E-02

    ------------------------------------------------
       NWT REQUIRED            4 OUTER ITERATIONS 
       AND A TOTAL OF          7 INNER ITERATIONS.
    ------------------------------------------------

 NO OUTPUT CONTROL FOR STRESS PERIOD   37   TIME STEP    3
 
 SOLVING FOR HEAD 
                                                   Max.-Head-Change                         Max.-Flux-Residual
  Residual-Control   Outer-Iter.   Inner-Iter.     Column Row Layer    Maximum-Head-Change  Column Row Layer    Maximum-Flux-Residual          L2-NORM 
          0                 1           2             3    7     1       0.1462195759E-01       4    7    1         0.7345186511E+00      0.2280327146E+01
          0                 2           2             4    7     1       0.2103073835E-02       4    7    1         0.1109117620E+00      0.2864732378E+00
          0                 3           2             4    7     1       0.3146103992E-03       4    7    1         0.1651697018E-01      0.3572081925E-01
          0                 4           1             4    7     1       0.4703686462E-04       4    7    1         0.2475153390E-02      0.5036617048E-02

    ------------------------------------------------
       NWT REQUIRED            4 OUTER ITERATIONS 
       AND A TOTAL OF          7 INNER ITERATIONS.
    ------------------------------------------------

 NO OUTPUT CONTROL FOR STRESS PERIOD   37   TIME STEP    4
 
 SOLVING FOR HEAD 
                                                   Max.-Head-Change                         Max.-Flux-Residual
  Residual-Control   Outer-Iter.   Inner-Iter.     Column Row Layer    Maximum-Head-Change  Column Row Layer    Maximum-Flux-Residual          L2-NORM 
          0                 1           2             3    7     1       0.1455117497E-01       4    7    1         0.7275219922E+00      0.2260619016E+01
          0                 2           2             4    7     1       0.2083446980E-02       4    7    1         0.1098717250E+00      0.2840694909E+00
          0                 3           2             4    7     1       0.3117042946E-03       4    7    1         0.1636337250E-01      0.3543219985E-01
          0                 4           1             4    7     1       0.4660649780E-04       4    7    1         0.2452386004E-02      0.4996513516E-02

    ------------------------------------------------
       NWT REQUIRED            4 OUTER ITERATIONS 
       AND A TOTAL OF          7 INNER ITERATIONS.
    ------------------------------------------------

 NO OUTPUT CONTROL FOR STRESS PERIOD   37   TIME STEP    5
 
 SOLVING FOR HEAD 
                                                   Max.-Head-Change                         Max.-Flux-Residual
  Residual-Control   Outer-Iter.   Inner-Iter.     Column Row Layer    Maximum-Head-Change  Column Row Layer    Maximum-Flux-Residual          L2-NORM 
          0                 1           2             3    7     1       0.1448049493E-01       4    7    1         0.7206667866E+00      0.2241263047E+01
          0                 2           2             4    7     1       0.2064185489E-02       4    7    1         0.1088515935E+00      0.2816984362E+00
          0                 3           2             4    7     1       0.3088497033E-03       4    7    1         0.1621257873E-01      0.3514581303E-01
          0                 4           1             4    7     1       0.4618340395E-04       4    7    1         0.2430014180E-02      0.4956622132E-02

    ------------------------------------------------
       NWT REQUIRED            4 OUTER ITERATIONS 
       AND A TOTAL OF          7 INNER ITERATIONS.
    ------------------------------------------------

 NO OUTPUT CONTROL FOR STRESS PERIOD   37   TIME STEP    6
 
 SOLVING FOR HEAD 
                                                   Max.-Head-Change                         Max.-Flux-Residual
  Residual-Control   Outer-Iter.   Inner-Iter.     Column Row Layer    Maximum-Head-Change  Column Row Layer    Maximum-Flux-Residual          L2-NORM 
          0                 1           2             3    7     1       0.1441017715E-01       4    7    1         0.7139442064E+00      0.2222255760E+01
          0                 2           2             4    7     1       0.2045270613E-02       4    7    1         0.1078502744E+00      0.2793607410E+00
          0                 3           2             4    7     1       0.3060443297E-03       4    7    1         0.1606445233E-01      0.3486194318E-01
          0                 4           1             4    7     1       0.4576730772E-04       4    7    1         0.2408021420E-02      0.4916994136E-02

    ------------------------------------------------
       NWT REQUIRED            4 OUTER ITERATIONS 
       AND A TOTAL OF          7 INNER ITERATIONS.
    ------------------------------------------------

 NO OUTPUT CONTROL FOR STRESS PERIOD   37   TIME STEP    7
 
 SOLVING FOR HEAD 
                                                   Max.-Head-Change                         Max.-Flux-Residual
  Residual-Control   Outer-Iter.   Inner-Iter.     Column Row Layer    Maximum-Head-Change  Column Row Layer    Maximum-Flux-Residual          L2-NORM 
          0                 1           2             3    7     1       0.1433975289E-01       4    7    1         0.7073539979E+00      0.2203588341E+01
          0                 2           2             4    7     1       0.2026701326E-02       4    7    1         0.1068677001E+00      0.2770557818E+00
          0                 3           2             4    7     1       0.3032880331E-03       4    7    1         0.1591898628E-01      0.3458055380E-01
          0                 4           1             4    7     1       0.4535819120E-04       4    7    1         0.2386406632E-02      0.4879116871E-02

    ------------------------------------------------
       NWT REQUIRED            4 OUTER ITERATIONS 
       AND A TOTAL OF          7 INNER ITERATIONS.
    ------------------------------------------------

 NO OUTPUT CONTROL FOR STRESS PERIOD   37   TIME STEP    8
 
 SOLVING FOR HEAD 
                                                   Max.-Head-Change                         Max.-Flux-Residual
  Residual-Control   Outer-Iter.   Inner-Iter.     Column Row Layer    Maximum-Head-Change  Column Row Layer    Maximum-Flux-Residual          L2-NORM 
          0                 1           2             3    7     1       0.1426948517E-01       4    7    1         0.7008885020E+00      0.2185239975E+01
          0                 2           2             4    7     1       0.2008458831E-02       4    7    1         0.1059028384E+00      0.2747817818E+00
          0                 3           2             4    7     1       0.3005782238E-03       4    7    1         0.1577603730E-01      0.3430164136E-01
          0                 4           1             4    7     1       0.4495569600E-04       4    7    1         0.2365150120E-02      0.4838541546E-02

    ------------------------------------------------
       NWT REQUIRED            4 OUTER ITERATIONS 
       AND A TOTAL OF          7 INNER ITERATIONS.
    ------------------------------------------------

 NO OUTPUT CONTROL FOR STRESS PERIOD   37   TIME STEP    9
 
 SOLVING FOR HEAD 
                                                   Max.-Head-Change                         Max.-Flux-Residual
  Residual-Control   Outer-Iter.   Inner-Iter.     Column Row Layer    Maximum-Head-Change  Column Row Layer    Maximum-Flux-Residual          L2-NORM 
          0                 1           2             3    7     1       0.1419938707E-01       4    7    1         0.6945334469E+00      0.2167204065E+01
          0                 2           2             4    7     1       0.1990507498E-02       4    7    1         0.1049537229E+00      0.2725382390E+00
          0                 3           2             4    7     1       0.2979099960E-03       4    7    1         0.1563533449E-01      0.3402510397E-01
          0                 4           1             4    7     1       0.4455914795E-04       4    7    1         0.2344214641E-02      0.4799710314E-02

    ------------------------------------------------
       NWT REQUIRED            4 OUTER ITERATIONS 
       AND A TOTAL OF          7 INNER ITERATIONS.
    ------------------------------------------------

 NO OUTPUT CONTROL FOR STRESS PERIOD   37   TIME STEP   10
 
 SOLVING FOR HEAD 
                                                   Max.-Head-Change                         Max.-Flux-Residual
  Residual-Control   Outer-Iter.   Inner-Iter.     Column Row Layer    Maximum-Head-Change  Column Row Layer    Maximum-Flux-Residual          L2-NORM 
          0                 1           2             3    7     1       0.1412947242E-01       4    7    1         0.6882902554E+00      0.2149478019E+01
          0                 2           2             4    7     1       0.1972851656E-02       4    7    1         0.1040205764E+00      0.2703254909E+00
          0                 3           2             4    7     1       0.2952840223E-03       4    7    1         0.1549691241E-01      0.3375112914E-01
          0                 4           1             4    7     1       0.4416865070E-04       4    7    1         0.2323605541E-02      0.4761169788E-02

    ------------------------------------------------
       NWT REQUIRED            4 OUTER ITERATIONS 
       AND A TOTAL OF          7 INNER ITERATIONS.
    ------------------------------------------------

 NO OUTPUT CONTROL FOR STRESS PERIOD   37   TIME STEP   11
 
 SOLVING FOR HEAD 
                                                   Max.-Head-Change                         Max.-Flux-Residual
  Residual-Control   Outer-Iter.   Inner-Iter.     Column Row Layer    Maximum-Head-Change  Column Row Layer    Maximum-Flux-Residual          L2-NORM 
          0                 1           2             3    7     1       0.1405975198E-01       4    7    1         0.6821530776E+00      0.2132045636E+01
          0                 2           2             4    7     1       0.1955478043E-02       4    7    1         0.1031026399E+00      0.2681424601E+00
          0                 3           2             4    7     1       0.2926985963E-03       4    7    1         0.1536067297E-01      0.3347974842E-01
          0                 4           1             4    7     1       0.4378398617E-04       4    7    1         0.2303310228E-02      0.4722934960E-02

    ------------------------------------------------
       NWT REQUIRED            4 OUTER ITERATIONS 
       AND A TOTAL OF          7 INNER ITERATIONS.
    ------------------------------------------------

 NO OUTPUT CONTROL FOR STRESS PERIOD   37   TIME STEP   12
 
 SOLVING FOR HEAD 
                                                   Max.-Head-Change                         Max.-Flux-Residual
  Residual-Control   Outer-Iter.   Inner-Iter.     Column Row Layer    Maximum-Head-Change  Column Row Layer    Maximum-Flux-Residual          L2-NORM 
          0                 1           2             3    7     1       0.1399023535E-01       4    7    1         0.6761167473E+00      0.2114894636E+01
          0                 2           2             4    7     1       0.1938371767E-02       4    7    1         0.1021991324E+00      0.2659879214E+00
          0                 3           2             4    7     1       0.2901514885E-03       4    7    1         0.1522649878E-01      0.3321082347E-01
          0                 4           1             4    7     1       0.4340482245E-04       4    7    1         0.2283311189E-02      0.4684988976E-02

    ------------------------------------------------
       NWT REQUIRED            4 OUTER ITERATIONS 
       AND A TOTAL OF          7 INNER ITERATIONS.
    ------------------------------------------------

 NO OUTPUT CONTROL FOR STRESS PERIOD   37   TIME STEP   13
 
 SOLVING FOR HEAD 
                                                   Max.-Head-Change                         Max.-Flux-Residual
  Residual-Control   Outer-Iter.   Inner-Iter.     Column Row Layer    Maximum-Head-Change  Column Row Layer    Maximum-Flux-Residual          L2-NORM 
          0                 1           2             3    7     1       0.1392093170E-01       4    7    1         0.6701688554E+00      0.2098022392E+01
          0                 2           2             4    7     1       0.1921503962E-02       4    7    1         0.1013084198E+00      0.2638617210E+00
          0                 3           2             4    7     1       0.2876388977E-03       4    7    1         0.1509417457E-01      0.3294438311E-01
          0                 4           1             4    7     1       0.4303065883E-04       4    7    1         0.2263580061E-02      0.4647336955E-02

    ------------------------------------------------
       NWT REQUIRED            4 OUTER ITERATIONS 
       AND A TOTAL OF          7 INNER ITERATIONS.
    ------------------------------------------------

 NO OUTPUT CONTROL FOR STRESS PERIOD   37   TIME STEP   14
 
 SOLVING FOR HEAD 
                                                   Max.-Head-Change                         Max.-Flux-Residual
  Residual-Control   Outer-Iter.   Inner-Iter.     Column Row Layer    Maximum-Head-Change  Column Row Layer    Maximum-Flux-Residual          L2-NORM 
          0                 1           2             3    7     1       0.1385184615E-01       4    7    1         0.6643129166E+00      0.2081422687E+01
          0                 2           2             4    7     1       0.1904882533E-02       4    7    1         0.1004309544E+00      0.2617637095E+00
          0                 3           2             4    7     1       0.2851618489E-03       4    7    1         0.1496375877E-01      0.3268049504E-01
          0                 4           1             4    7     1       0.4266163024E-04       4    7    1         0.2244124476E-02      0.4609992126E-02

    ------------------------------------------------
       NWT REQUIRED            4 OUTER ITERATIONS 
       AND A TOTAL OF          7 INNER ITERATIONS.
    ------------------------------------------------

 NO OUTPUT CONTROL FOR STRESS PERIOD   37   TIME STEP   15
 
 SOLVING FOR HEAD 
                                                   Max.-Head-Change                         Max.-Flux-Residual
  Residual-Control   Outer-Iter.   Inner-Iter.     Column Row Layer    Maximum-Head-Change  Column Row Layer    Maximum-Flux-Residual          L2-NORM 
          0                 1           2             3    7     1       0.1378298745E-01       4    7    1         0.6585447219E+00      0.2065089610E+01
          0                 2           2             4    7     1       0.1888499326E-02       4    7    1         0.9956623908E-01      0.2596937804E+00
          0                 3           2             4    7     1       0.2827194235E-03       4    7    1         0.1483519412E-01      0.3241927270E-01
          0                 4           1             4    7     1       0.4229763739E-04       4    7    1         0.2224938085E-02      0.4572972869E-02

    ------------------------------------------------
       NWT REQUIRED            4 OUTER ITERATIONS 
       AND A TOTAL OF          7 INNER ITERATIONS.
    ------------------------------------------------

 NO OUTPUT CONTROL FOR STRESS PERIOD   37   TIME STEP   16
 
 SOLVING FOR HEAD 
                                                   Max.-Head-Change                         Max.-Flux-Residual
  Residual-Control   Outer-Iter.   Inner-Iter.     Column Row Layer    Maximum-Head-Change  Column Row Layer    Maximum-Flux-Residual          L2-NORM 
          0                 1           2             3    7     1       0.1371411943E-01       4    7    1         0.6528607958E+00      0.2049004643E+01
          0                 2           2             4    7     1       0.1872341821E-02       4    7    1         0.9871365210E-01      0.2576497670E+00
          0                 3           2             4    7     1       0.2803095709E-03       4    7    1         0.1470837834E-01      0.3216043666E-01
          0                 4           1             4    7     1       0.4193835275E-04       4    7    1         0.2206004242E-02      0.4536250325E-02

    ------------------------------------------------
       NWT REQUIRED            4 OUTER ITERATIONS 
       AND A TOTAL OF          7 INNER ITERATIONS.
    ------------------------------------------------

 NO OUTPUT CONTROL FOR STRESS PERIOD   37   TIME STEP   17
 
 SOLVING FOR HEAD 
                                                   Max.-Head-Change                         Max.-Flux-Residual
  Residual-Control   Outer-Iter.   Inner-Iter.     Column Row Layer    Maximum-Head-Change  Column Row Layer    Maximum-Flux-Residual          L2-NORM 
          0                 1           2             3    7     1       0.1364573554E-01       4    7    1         0.6472499387E+00      0.2033177855E+01
          0                 2           2             4    7     1       0.1856385738E-02       4    7    1         0.9787179718E-01      0.2556333253E+00
          0                 3           2             4    7     1       0.2779292468E-03       4    7    1         0.1458313284E-01      0.3190426991E-01
          0                 4           1             4    7     1       0.4158339866E-04       4    7    1         0.2187300770E-02      0.4499862083E-02

    ------------------------------------------------
       NWT REQUIRED            4 OUTER ITERATIONS 
       AND A TOTAL OF          7 INNER ITERATIONS.
    ------------------------------------------------

 NO OUTPUT CONTROL FOR STRESS PERIOD   37   TIME STEP   18
 
 SOLVING FOR HEAD 
                                                   Max.-Head-Change                         Max.-Flux-Residual
  Residual-Control   Outer-Iter.   Inner-Iter.     Column Row Layer    Maximum-Head-Change  Column Row Layer    Maximum-Flux-Residual          L2-NORM 
          0                 1           2             3    7     1       0.1357759125E-01       4    7    1         0.6417244087E+00      0.2017587825E+01
          0                 2           2             4    7     1       0.1840660417E-02       4    7    1         0.9704230941E-01      0.2536424925E+00
          0                 3           2             4    7     1       0.2755823971E-03       4    7    1         0.1445967887E-01      0.3165065053E-01
          0                 4           1             4    7     1       0.4123330648E-04       4    7    1         0.2168857417E-02      0.4463795313E-02

    ------------------------------------------------
       NWT REQUIRED            4 OUTER ITERATIONS 
       AND A TOTAL OF          7 INNER ITERATIONS.
    ------------------------------------------------

 NO OUTPUT CONTROL FOR STRESS PERIOD   37   TIME STEP   19
 
 SOLVING FOR HEAD 
                                                   Max.-Head-Change                         Max.-Flux-Residual
  Residual-Control   Outer-Iter.   Inner-Iter.     Column Row Layer    Maximum-Head-Change  Column Row Layer    Maximum-Flux-Residual          L2-NORM 
          0                 1           2             3    7     1       0.1350969293E-01       4    7    1         0.6362733710E+00      0.2002246470E+01
          0                 2           2             4    7     1       0.1825139644E-02       4    7    1         0.9622372567E-01      0.2516784322E+00
          0                 3           2             4    7     1       0.2732654832E-03       4    7    1         0.1433781883E-01      0.3139966428E-01
          0                 4           1             4    7     1       0.4088759799E-04       4    7    1         0.2150647454E-02      0.4428061333E-02

    ------------------------------------------------
       NWT REQUIRED            4 OUTER ITERATIONS 
       AND A TOTAL OF          7 INNER ITERATIONS.
    ------------------------------------------------

 NO OUTPUT CONTROL FOR STRESS PERIOD   37   TIME STEP   20
 
 SOLVING FOR HEAD 
                                                   Max.-Head-Change                         Max.-Flux-Residual
  Residual-Control   Outer-Iter.   Inner-Iter.     Column Row Layer    Maximum-Head-Change  Column Row Layer    Maximum-Flux-Residual          L2-NORM 
          0                 1           2             3    7     1       0.1344204165E-01       4    7    1         0.6308869719E+00      0.1987124540E+01
          0                 2           2             4    7     1       0.1809796821E-02       4    7    1         0.9541462025E-01      0.2497381430E+00
          0                 3           2             4    7     1       0.2709746515E-03       4    7    1         0.1421734624E-01      0.3115103818E-01
          0                 4           1             4    7     1       0.4054571545E-04       4    7    1         0.2132640989E-02      0.4392629111E-02

    ------------------------------------------------
       NWT REQUIRED            4 OUTER ITERATIONS 
       AND A TOTAL OF          7 INNER ITERATIONS.
    ------------------------------------------------

 NO OUTPUT CONTROL FOR STRESS PERIOD   37   TIME STEP   21
 
 SOLVING FOR HEAD 
                                                   Max.-Head-Change                         Max.-Flux-Residual
  Residual-Control   Outer-Iter.   Inner-Iter.     Column Row Layer    Maximum-Head-Change  Column Row Layer    Maximum-Flux-Residual          L2-NORM 
          0                 1           2             3    7     1       0.1337439991E-01       4    7    1         0.6255776765E+00      0.1972237757E+01
          0                 2           2             4    7     1       0.1794665782E-02       4    7    1         0.9461679330E-01      0.2478240314E+00
          0                 3           2             4    7     1       0.2687148388E-03       4    7    1         0.1409852487E-01      0.3090512105E-01
          0                 4           1             4    7     1       0.4020837893E-04       4    7    1         0.2114876420E-02      0.4357565277E-02

    ------------------------------------------------
       NWT REQUIRED            4 OUTER ITERATIONS 
       AND A TOTAL OF          7 INNER ITERATIONS.
    ------------------------------------------------

 NO OUTPUT CONTROL FOR STRESS PERIOD   37   TIME STEP   22
 
 SOLVING FOR HEAD 
                                                   Max.-Head-Change                         Max.-Flux-Residual
  Residual-Control   Outer-Iter.   Inner-Iter.     Column Row Layer    Maximum-Head-Change  Column Row Layer    Maximum-Flux-Residual          L2-NORM 
          0                 1           2             3    7     1       0.1330725809E-01       4    7    1         0.6203355204E+00      0.1957565237E+01
          0                 2           2             4    7     1       0.1779719610E-02       4    7    1         0.9382882215E-01      0.2459333326E+00
          0                 3           2             4    7     1       0.2664821084E-03       4    7    1         0.1398114414E-01      0.3066159945E-01
          0                 4           1             4    7     1       0.3987501193E-04       4    7    1         0.2097323105E-02      0.4322780923E-02

    ------------------------------------------------
       NWT REQUIRED            4 OUTER ITERATIONS 
       AND A TOTAL OF          7 INNER ITERATIONS.
    ------------------------------------------------

 NO OUTPUT CONTROL FOR STRESS PERIOD   37   TIME STEP   23
 
 SOLVING FOR HEAD 
                                                   Max.-Head-Change                         Max.-Flux-Residual
  Residual-Control   Outer-Iter.   Inner-Iter.     Column Row Layer    Maximum-Head-Change  Column Row Layer    Maximum-Flux-Residual          L2-NORM 
          0                 1           2             3    7     1       0.1324037035E-01       4    7    1         0.6151510228E+00      0.1943104797E+01
          0                 2           2             4    7     1       0.1764934544E-02       4    7    1         0.9304938744E-01      0.2440663764E+00
          0                 3           2             4    7     1       0.2642731974E-03       4    7    1         0.1386502406E-01      0.3042058534E-01
          0                 4           1             4    7     1       0.3954516823E-04       4    7    1         0.2079956303E-02      0.4288331815E-02

    ------------------------------------------------
       NWT REQUIRED            4 OUTER ITERATIONS 
       AND A TOTAL OF          7 INNER ITERATIONS.
    ------------------------------------------------

 NO OUTPUT CONTROL FOR STRESS PERIOD   37   TIME STEP   24
 
 SOLVING FOR HEAD 
                                                   Max.-Head-Change                         Max.-Flux-Residual
  Residual-Control   Outer-Iter.   Inner-Iter.     Column Row Layer    Maximum-Head-Change  Column Row Layer    Maximum-Flux-Residual          L2-NORM 
          0                 1           2             3    7     1       0.1317349753E-01       4    7    1         0.6100372883E+00      0.1928862588E+01
          0                 2           2             4    7     1       0.1750344415E-02       4    7    1         0.9228032263E-01      0.2422239610E+00
          0                 3           2             4    7     1       0.2620928919E-03       4    7    1         0.1375042495E-01      0.3018215016E-01
          0                 4           1             4    7     1       0.3921952466E-04       4    7    1         0.2062812734E-02      0.4254225403E-02

    ------------------------------------------------
       NWT REQUIRED            4 OUTER ITERATIONS 
       AND A TOTAL OF          7 INNER ITERATIONS.
    ------------------------------------------------

 NO OUTPUT CONTROL FOR STRESS PERIOD   37   TIME STEP   25
 
 SOLVING FOR HEAD 
                                                   Max.-Head-Change                         Max.-Flux-Residual
  Residual-Control   Outer-Iter.   Inner-Iter.     Column Row Layer    Maximum-Head-Change  Column Row Layer    Maximum-Flux-Residual          L2-NORM 
          0                 1           2             3    7     1       0.1310712906E-01       4    7    1         0.6049846666E+00      0.1914830266E+01
          0                 2           2             4    7     1       0.1735926308E-02       4    7    1         0.9152035850E-01      0.2404056533E+00
          0                 3           2             4    7     1       0.2599381074E-03       4    7    1         0.1363717350E-01      0.2994637613E-01
          0                 4           1             4    7     1       0.3889766726E-04       4    7    1         0.2045869267E-02      0.4220474847E-02

    ------------------------------------------------
       NWT REQUIRED            4 OUTER ITERATIONS 
       AND A TOTAL OF          7 INNER ITERATIONS.
    ------------------------------------------------

 NO OUTPUT CONTROL FOR STRESS PERIOD   37   TIME STEP   26
 
 SOLVING FOR HEAD 
                                                   Max.-Head-Change                         Max.-Flux-Residual
  Residual-Control   Outer-Iter.   Inner-Iter.     Column Row Layer    Maximum-Head-Change  Column Row Layer    Maximum-Flux-Residual          L2-NORM 
          0                 1           2             3    7     1       0.1304101909E-01       4    7    1         0.5999918185E+00      0.1900998597E+01
          0                 2           2             4    7     1       0.1721675146E-02       4    7    1         0.9076924254E-01      0.2386099172E+00
          0                 3           2             4    7     1       0.2578079906E-03       4    7    1         0.1352522813E-01      0.2971299230E-01
          0                 4           1             4    7     1       0.3857945423E-04       4    7    1         0.2029118852E-02      0.4187037573E-02

    ------------------------------------------------
       NWT REQUIRED            4 OUTER ITERATIONS 
       AND A TOTAL OF          7 INNER ITERATIONS.
    ------------------------------------------------

 NO OUTPUT CONTROL FOR STRESS PERIOD   37   TIME STEP   27
 
 SOLVING FOR HEAD 
                                                   Max.-Head-Change                         Max.-Flux-Residual
  Residual-Control   Outer-Iter.   Inner-Iter.     Column Row Layer    Maximum-Head-Change  Column Row Layer    Maximum-Flux-Residual          L2-NORM 
          0                 1           2             3    7     1       0.1297516792E-01       4    7    1         0.5950644847E+00      0.1887363864E+01
          0                 2           2             4    7     1       0.1707604753E-02       4    7    1         0.9002774595E-01      0.2368368117E+00
          0                 3           2             4    7     1       0.2557044165E-03       4    7    1         0.1341469306E-01      0.2948225439E-01
          0                 4           1             4    7     1       0.3826514206E-04       4    7    1         0.2012575666E-02      0.4154028918E-02

    ------------------------------------------------
       NWT REQUIRED            4 OUTER ITERATIONS 
       AND A TOTAL OF          7 INNER ITERATIONS.
    ------------------------------------------------

 NO OUTPUT CONTROL FOR STRESS PERIOD   37   TIME STEP   28
 
 SOLVING FOR HEAD 
                                                   Max.-Head-Change                         Max.-Flux-Residual
  Residual-Control   Outer-Iter.   Inner-Iter.     Column Row Layer    Maximum-Head-Change  Column Row Layer    Maximum-Flux-Residual          L2-NORM 
          0                 1           2             3    7     1       0.1290933679E-01       4    7    1         0.5901859649E+00      0.1873915448E+01
          0                 2           2             4    7     1       0.1693673700E-02       4    7    1         0.8929357006E-01      0.2350852145E+00
          0                 3           2             4    7     1       0.2536216976E-03       4    7    1         0.1330525441E-01      0.2925356498E-01
          0                 4           1             4    7     1       0.3795394815E-04       4    7    1         0.1996196511E-02      0.4121143682E-02

    ------------------------------------------------
       NWT REQUIRED            4 OUTER ITERATIONS 
       AND A TOTAL OF          7 INNER ITERATIONS.
    ------------------------------------------------

 NO OUTPUT CONTROL FOR STRESS PERIOD   37   TIME STEP   29
 
 SOLVING FOR HEAD 
                                                   Max.-Head-Change                         Max.-Flux-Residual
  Residual-Control   Outer-Iter.   Inner-Iter.     Column Row Layer    Maximum-Head-Change  Column Row Layer    Maximum-Flux-Residual          L2-NORM 
          0                 1           2             3    7     1       0.1284401270E-01       4    7    1         0.5853700759E+00      0.1860664605E+01
          0                 2           2             4    7     1       0.1679917948E-02       4    7    1         0.8856868603E-01      0.2333566515E+00
          0                 3           2             4    7     1       0.2515649078E-03       4    7    1         0.1319718727E-01      0.2902763951E-01
          0                 4           1             4    7     1       0.3764659056E-04       4    7    1         0.1980020414E-02      0.4088735719E-02

    ------------------------------------------------
       NWT REQUIRED            4 OUTER ITERATIONS 
       AND A TOTAL OF          7 INNER ITERATIONS.
    ------------------------------------------------

 NO OUTPUT CONTROL FOR STRESS PERIOD   37   TIME STEP   30



 STREAM LISTING     PERIOD     37   STEP       30

 LAYER ROW COL. STREAM  RCH.  FLOW INTO     FLOW TO   FLOW OUT OF   OVRLND.     DIRECT     STREAM       STREAM     STREAM     STREAM   STREAMBED  STREAMBED
                SEG.NO.  NO.  STRM. RCH.    AQUIFER    STRM. RCH.    RUNOFF     PRECIP       ET          HEAD       DEPTH      WIDTH   CONDCTNC.   GRADIENT

   1    1    1     1     1    8.6247E+00  1.3546E-01   8.4893E+00  0.000E+00  0.000E+00  0.000E+00  1.09390E+03  8.549E-01  7.809E+00  3.514E-02  1.285E+00
   1    2    2     1     2    8.4893E+00  2.0809E-01   8.2812E+00  0.000E+00  0.000E+00  0.000E+00  1.08891E+03  8.492E-01  7.723E+00  5.406E-02  1.283E+00
   1    3    3     1     3    8.2812E+00  1.7583E-01   8.1054E+00  0.000E+00  0.000E+00  0.000E+00  1.08326E+03  8.427E-01  7.626E+00  4.576E-02  1.281E+00
   1    3    4     1     4    8.1054E+00  1.6058E-01   7.9448E+00  0.000E+00  0.000E+00  0.000E+00  1.07824E+03  8.369E-01  7.541E+00  4.185E-02  1.279E+00
   1    4    5     2     1    5.9448E+00  2.7323E-01   5.6716E+00  0.000E+00  0.000E+00  0.000E+00  1.07244E+03  5.030E-01  1.200E+01  7.800E-02  1.168E+00
   1    5    6     2     2    5.6716E+00  2.0942E-01   5.4621E+00  0.000E+00  0.000E+00  0.000E+00  1.06700E+03  4.904E-01  1.200E+01  6.000E-02  1.163E+00
   1    6    6     2     3    5.4621E+00  2.0875E-01   5.2534E+00  0.000E+00  0.000E+00  0.000E+00  1.06227E+03  4.792E-01  1.200E+01  6.000E-02  1.160E+00
   1    7    6     2     4    5.2534E+00  2.0808E-01   5.0453E+00  0.000E+00  0.000E+00  0.000E+00  1.05754E+03  4.679E-01  1.200E+01  6.000E-02  1.156E+00
   1    8    6     2     5    5.0453E+00  2.0739E-01   4.8379E+00  0.000E+00  0.000E+00  0.000E+00  1.05282E+03  4.565E-01  1.200E+01  6.000E-02  1.152E+00
   1    3    5     3     1    2.0000E+00  2.8252E-01   1.7175E+00  0.000E+00  0.000E+00  0.000E+00  1.07555E+03  1.909E+00  9.636E+00  7.227E-02  1.955E+00
   1    3    6     3     2    1.7175E+00  2.4905E-01   1.4684E+00  0.000E+00  0.000E+00  0.000E+00  1.07264E+03  1.727E+00  8.909E+00  6.682E-02  1.864E+00
   1    3    7     3     3    1.4684E+00  1.9718E-01   1.2712E+00  0.000E+00  0.000E+00  0.000E+00  1.06987E+03  1.555E+00  8.218E+00  5.547E-02  1.777E+00
   1    4    8     3     4    1.2712E+00  2.2567E-01   1.0456E+00  0.000E+00  0.000E+00  0.000E+00  1.06682E+03  1.364E+00  7.455E+00  6.709E-02  1.682E+00
   1    5    8     3     5    1.0456E+00  1.5790E-01   8.8768E-01  0.000E+00  0.000E+00  0.000E+00  1.06362E+03  1.164E+00  6.655E+00  4.991E-02  1.582E+00
   1    6    8     3     6    8.8768E-01  5.5980E-02   8.3170E-01  0.000E+00  0.000E+00  0.000E+00  1.06158E+03  1.036E+00  6.145E+00  1.844E-02  1.518E+00
   1    5   10     4     1    1.0000E+01  9.0919E-02   9.9091E+00  0.000E+00  0.000E+00  0.000E+00  1.07836E+03  6.368E-01  1.000E+01  2.500E-02  1.212E+00
   1    5    9     4     2    9.9091E+00  1.8158E-01   9.7275E+00  0.000E+00  0.000E+00  0.000E+00  1.07154E+03  6.315E-01  1.000E+01  5.000E-02  1.211E+00
   1    6    8     4     3    9.7275E+00  1.2689E-01   9.6006E+00  0.000E+00  0.000E+00  0.000E+00  1.06381E+03  6.256E-01  1.000E+01  3.500E-02  1.209E+00
   1    6    8     5     1    1.0432E+01  2.2686E-01   1.0205E+01  0.000E+00  0.000E+00  0.000E+00  1.05868E+03  6.790E-01  1.542E+01  6.166E-02  1.226E+00
   1    7    7     5     2    1.0205E+01  2.7894E-01   9.9265E+00  0.000E+00  0.000E+00  0.000E+00  1.05417E+03  6.732E-01  1.519E+01  7.594E-02  1.224E+00
   1    8    7     5     3    9.9265E+00  1.9221E-01   9.7343E+00  0.000E+00  0.000E+00  0.000E+00  1.04992E+03  6.676E-01  1.497E+01  5.241E-02  1.223E+00
   1    8    6     5     4    9.7343E+00  1.3577E-01   9.5985E+00  0.000E+00  0.000E+00  0.000E+00  1.04691E+03  6.637E-01  1.482E+01  3.706E-02  1.221E+00
   1    9    6     6     1    1.4436E+01  2.3244E-01   1.4204E+01  0.000E+00  0.000E+00  0.000E+00  1.04360E+03  8.741E-01  1.200E+01  6.000E-02  1.291E+00
   1   10    7     6     2    1.4204E+01  2.3193E-01   1.3972E+01  0.000E+00  0.000E+00  0.000E+00  1.03905E+03  8.655E-01  1.200E+01  6.000E-02  1.289E+00
   1   11    7     6     3    1.3972E+01  2.3142E-01   1.3741E+01  0.000E+00  0.000E+00  0.000E+00  1.03449E+03  8.570E-01  1.200E+01  6.000E-02  1.286E+00
   1   12    7     6     4    1.3741E+01  2.3090E-01   1.3510E+01  0.000E+00  0.000E+00  0.000E+00  1.02994E+03  8.484E-01  1.200E+01  6.000E-02  1.283E+00
   1   13    7     6     5    1.3510E+01  6.0904E-03   1.3504E+01  0.000E+00  0.000E+00  0.000E+00  1.02675E+03  8.439E-01  1.200E+01  2.400E-02  8.459E-02
   1   14    9     7     1    1.5000E+02  1.3966E+00   1.4860E+02  0.000E+00  0.000E+00  0.000E+00  1.03987E+03  2.288E+00  5.529E+01  5.593E-01  8.324E-01
   1   13    8     7     2    1.4860E+02  2.0214E+00   1.4658E+02  0.000E+00  0.000E+00  0.000E+00  1.03478E+03  2.278E+00  5.525E+01  6.147E-01  1.096E+00
   1   13    7     7     3    1.4658E+02  1.7802E+00   1.4480E+02  0.000E+00  0.000E+00  0.000E+00  1.02969E+03  2.268E+00  5.521E+01  5.583E-01  1.063E+00
   1   13    6     8     1    1.5831E+02  1.1591E+00   1.5715E+02  0.000E+00  0.000E+00  0.000E+00  1.02475E+03  2.870E+00  4.162E+01  4.241E-01  9.109E-01
   1   13    5     8     2    1.5715E+02  4.0658E-01   1.5674E+02  0.000E+00  0.000E+00  0.000E+00  1.01849E+03  2.865E+00  4.154E+01  4.233E-01  3.201E-01
   1   13    4     8     3    1.5674E+02 -1.6306E+00   1.5837E+02  0.000E+00  0.000E+00  0.000E+00  1.01224E+03  2.869E+00  4.160E+01  4.240E+00 -1.282E-01
   1   13    3     8     4    1.5837E+02 -3.2539E+00   1.6162E+02  0.000E+00  0.000E+00  0.000E+00  1.00601E+03  2.886E+00  4.184E+01  4.264E+00 -2.544E-01
   1   13    2     8     5    1.6162E+02 -2.4835E+00   1.6411E+02  0.000E+00  0.000E+00  0.000E+00  9.99780E+02  2.905E+00  4.212E+01  4.293E+00 -1.928E-01
   1   13    1     8     6    1.6411E+02 -1.9593E+00   1.6607E+02  0.000E+00  0.000E+00  0.000E+00  9.94795E+02  2.920E+00  4.234E+01  2.589E+00 -2.523E-01
   1    8    6     9     1    0.0000E+00  0.0000E+00   0.0000E+00  0.000E+00  0.000E+00  0.000E+00  1.07875E+03  0.000E+00  4.000E+00  0.000E+00  1.000E+00
   1    8    5     9     2    0.0000E+00  0.0000E+00   0.0000E+00  0.000E+00  0.000E+00  0.000E+00  1.07825E+03  0.000E+00  4.000E+00  0.000E+00  1.000E+00





UNSATURATED ZONE PACKAGE VOLUMETRIC BUDGET FOR  TIME STEP    30 STRESS PERIOD   37
  ------------------------------------------------------------------------------



     CUMULATIVE VOLUMES      L**3       RATES FOR THIS TIME STEP      L**3/T
     ------------------                 ------------------------

           IN:                                      IN:
           ---                                      ---
        INFILTRATION =  1754127825.9807          INFILTRATION =           0.8475

          OUT:                                     OUT:
          ----                                     ----
              UZF ET =  1283065649.3965                UZF ET =           0.7500
        UZF RECHARGE =   117464187.0184          UZF RECHARGE =           1.1367

            IN - OUT =   353597989.5658              IN - OUT =          -1.0392

          STORAGE:                                 STORAGE:
          --------                                 --------
      STORAGE CHANGE =   353598240.5706        STORAGE CHANGE =          -1.0392

 PERCENT DISCREPANCY IS DIFFERENCE BETWEEN IN-OUT MINUS CHANGE IN STORAGE
 DIVIDED BY THE AVERAGE OF IN AND OUT TIMES 100

 PERCENT DISCREPANCY =          -0.00     PERCENT DISCREPANCY =           0.00






1
  VOLUMETRIC BUDGET FOR AGRICULTURAL FIELDS AT  END OF TIME STEP   30, STRESS PERIOD  37
  ------------------------------------------------------------------------------

     CUMULATIVE VOLUMES      L**3       RATES FOR THIS TIME STEP      L**3/T
     ------------------                 ------------------------

           IN:                                      IN:
           ---                                      ---
               AG WELLS  =  1086541952.0000                 AG WELLS  =           0.0000
      DIVERSION SEGMENTS =   587377792.0000        DIVERSION SEGMENTS =           0.0000
       IRRIGATION PONDS  =           0.0000         IRRIGATION PONDS  =           0.0000
           GW IRRIGATION =           0.0000             GW IRRIGATION =           0.0000
           SW IRRIGATION =           0.0000             SW IRRIGATION =           0.0000
        SYSTEM LOSSES GW =           0.0000          SYSTEM LOSSES GW =           0.0000
        SYSTEM LOSSES SW =           0.0000          SYSTEM LOSSES SW =           0.0000

                TOTAL IN =  1673919744.0000                  TOTAL IN =           0.0000

          OUT:                                     OUT:
          ----                                     ----
               AG WELLS  =           0.0000                 AG WELLS  =           0.0000
      DIVERSION SEGMENTS =           0.0000        DIVERSION SEGMENTS =           0.0000
       IRRIGATION PONDS  =           0.0000         IRRIGATION PONDS  =           0.0000
           GW IRRIGATION =  1086541952.0000             GW IRRIGATION =           0.0000
           SW IRRIGATION =   587388864.0000             SW IRRIGATION =           0.0000
        SYSTEM LOSSES GW =           0.0000          SYSTEM LOSSES GW =           0.0000
        SYSTEM LOSSES SW =           0.0000          SYSTEM LOSSES SW =           0.0000

               TOTAL OUT =  1673930752.0000                 TOTAL OUT =           0.0000

                IN - OUT =      -11008.0000                  IN - OUT =           0.0000

     PERCENT DISCREPANCY =          -0.00         PERCENT DISCREPANCY =           0.00



1
  VOLUMETRIC BUDGET FOR ENTIRE MODEL AT END OF TIME STEP   30, STRESS PERIOD  37
  ------------------------------------------------------------------------------

     CUMULATIVE VOLUMES      L**3       RATES FOR THIS TIME STEP      L**3/T
     ------------------                 ------------------------

           IN:                                      IN:
           ---                                      ---
             STORAGE     =  1638261376.0000               STORAGE     =           4.8921
       CONSTANT HEAD     =           0.0000         CONSTANT HEAD     =           0.0000
     HEAD DEP BOUNDS     =    27345292.0000       HEAD DEP BOUNDS     =           0.2899
      STREAM LEAKAGE     =  1132076800.0000        STREAM LEAKAGE     =          11.8850
        UZF RECHARGE     =   117464248.0000          UZF RECHARGE     =           1.1367
               GW ET     =           0.0000                 GW ET     =           0.0000
     SURFACE LEAKAGE     =           0.0000       SURFACE LEAKAGE     =           0.0000
           AG WELLS      =           0.0000             AG WELLS      =           0.0000

                TOTAL IN =  2915147776.0000                  TOTAL IN =          18.2037

          OUT:                                     OUT:
          ----                                     ----
             STORAGE     =   864343680.0000               STORAGE     =           8.5880
       CONSTANT HEAD     =           0.0000         CONSTANT HEAD     =           0.0000
     HEAD DEP BOUNDS     =    27268370.0000       HEAD DEP BOUNDS     =           0.2870
      STREAM LEAKAGE     =   936982080.0000        STREAM LEAKAGE     =           9.3272
        UZF RECHARGE     =           0.0000          UZF RECHARGE     =           0.0000
               GW ET     =           0.0000                 GW ET     =           0.0000
     SURFACE LEAKAGE     =           0.0000       SURFACE LEAKAGE     =           0.0000
           AG WELLS      =  1086541952.0000             AG WELLS      =           0.0000

               TOTAL OUT =  2915136000.0000                 TOTAL OUT =          18.2022

                IN - OUT =       11776.0000                  IN - OUT =       1.4839E-03

     PERCENT DISCREPANCY =           0.00         PERCENT DISCREPANCY =           0.01






         TIME SUMMARY AT END OF TIME STEP   30 IN STRESS PERIOD   37
                    SECONDS     MINUTES      HOURS       DAYS        YEARS
                    -----------------------------------------------------------
   TIME STEP LENGTH  87667.      1461.1      24.352      1.0147     2.77799E-03
 STRESS PERIOD TIME 2.63000E+06  43833.      730.56      30.440     8.33397E-02
         TOTAL TIME 9.47660E+07 1.57943E+06  26324.      1096.8      3.0030    
1
1
                            STRESS PERIOD NO.   38, LENGTH =   2630000.    
                            -----------------------------------------------

                              NUMBER OF TIME STEPS =    30

                               MULTIPLIER FOR DELT =     1.000

                            INITIAL TIME STEP SIZE =   87666.66    

 REUSING NON-PARAMETER GHB CELLS FROM LAST STRESS PERIOD

      2 GHB CELLS

 REUSING STREAM SEGMENT DATA FROM LAST STRESS PERIOD



            AREAL INFILTRATION RATE
 READING ON UNIT   19 WITH FORMAT: (FREE)              

            1           2           3           4           5           6           7           8           9          10
 ........................................................................................................................
   1   1.0000E-10  2.0000E-10   0.000       0.000       0.000       0.000       0.000       0.000       0.000       0.000    
   2   2.0000E-10  1.0000E-10  2.0000E-10   0.000       0.000      8.0000E-10  8.0000E-10  5.0000E-10   0.000       0.000    
   3    0.000      5.0000E-10  1.0000E-10  1.0000E-10  8.0000E-10  8.0000E-10  5.0000E-10  5.0000E-10   0.000       0.000    
   4   8.0000E-10  5.0000E-10  1.0000E-10  1.0000E-10  1.0000E-10  1.0000E-10  1.0000E-10  1.0000E-10  2.0000E-10   0.000    
   5   8.0000E-10  5.0000E-10  1.0000E-10  1.0000E-10  1.0000E-10  1.0000E-10  1.0000E-10  1.0000E-10  1.0000E-10  1.0000E-10
   6   8.0000E-10  5.0000E-10  5.0000E-10  2.0000E-10  2.0000E-10  1.0000E-10  1.0000E-10  1.0000E-10  1.0000E-10  5.0000E-10
   7   8.0000E-10  5.0000E-10  5.0000E-10  2.0000E-10  2.0000E-10  1.0000E-10  1.0000E-10  2.0000E-10  2.0000E-10   0.000    
   8    0.000      5.0000E-10  5.0000E-10  2.0000E-10  2.0000E-10  1.0000E-10  1.0000E-10  2.0000E-10  5.0000E-10   0.000    
   9    0.000      5.0000E-10  5.0000E-10  2.0000E-10  2.0000E-10  1.0000E-10  1.0000E-10  2.0000E-10  5.0000E-10   0.000    
  10    0.000      5.0000E-10  5.0000E-10  2.0000E-10  2.0000E-10  1.0000E-10  1.0000E-10  2.0000E-10  5.0000E-10  8.0000E-10
  11    0.000      1.0000E-10  1.0000E-10  1.0000E-10  1.0000E-10  1.0000E-10  1.0000E-10  2.0000E-10  5.0000E-10   0.000    
  12   1.0000E-10  1.0000E-10  1.0000E-10  1.0000E-10  1.0000E-10  1.0000E-10  1.0000E-10  1.0000E-10  2.0000E-10   0.000    
  13   1.0000E-10  1.0000E-10  2.0000E-10  2.0000E-10  2.0000E-10  2.0000E-10  2.0000E-10  1.0000E-10  1.0000E-10   0.000    
  14    0.000      2.0000E-10  5.0000E-10  5.0000E-10  5.0000E-10  5.0000E-10  5.0000E-10  2.0000E-10  1.0000E-10   0.000    
  15    0.000       0.000      8.0000E-10  8.0000E-10  8.0000E-10  8.0000E-10   0.000       0.000       0.000       0.000    

                  ET RATE =  5.000000E-10

 USING ET EXTINCTION DEPTH FROM PREVIOUS STRESS PERIOD. CURRENT PERIOD IS:      38

 USING EXTINCTION WATER CONTENT FROM PREVIOUS STRESS PERIOD. CURRENT PERIOD IS:      38

 USING AIR ENTRY PRESSURE FROM PREVIOUS STRESS PERIOD. CURRENT PERIOD IS:      38

 USING ROOT PRESSURE HEAD FROM PREVIOUS STRESS PERIOD. CURRENT PERIOD IS:      38

 USING ROOT ACTIVITY FROM PREVIOUS STRESS PERIOD. CURRENT PERIOD IS:      38

 PROCESSING AG STRESS PERIOD DATA

 READING AG STRESS PERIOD DATA

 READING IRRIGATION SEGMENT

 READING IRRIGATION WELL

 READING SUPPLEMENTAL WELL

 NO IRRPOND OR REUSING IRRPOND DATA FROM LAST STRESS PERIOD

 END PROCESSING AG STRESS PERIOD DATA OPTIONS
 
 SOLVING FOR HEAD 
                                                   Max.-Head-Change                         Max.-Flux-Residual
  Residual-Control   Outer-Iter.   Inner-Iter.     Column Row Layer    Maximum-Head-Change  Column Row Layer    Maximum-Flux-Residual          L2-NORM 
          0                 1           2             3    7     1       0.1277894917E-01       4    7    1         0.5806079710E+00      0.1847592321E+01
          0                 2           2             4    7     1       0.1666313499E-02       4    7    1         0.8785180067E-01      0.2316490060E+00
          0                 3           2             4    7     1       0.2495305724E-03       4    7    1         0.1309030589E-01      0.2880406664E-01
          0                 4           1             4    7     1       0.3734256496E-04       4    7    1         0.1964020365E-02      0.4056587179E-02

    ------------------------------------------------
       NWT REQUIRED            4 OUTER ITERATIONS 
       AND A TOTAL OF          7 INNER ITERATIONS.
    ------------------------------------------------

 NO OUTPUT CONTROL FOR STRESS PERIOD   38   TIME STEP    1
 
 SOLVING FOR HEAD 
                                                   Max.-Head-Change                         Max.-Flux-Residual
  Residual-Control   Outer-Iter.   Inner-Iter.     Column Row Layer    Maximum-Head-Change  Column Row Layer    Maximum-Flux-Residual          L2-NORM 
          0                 1           2             3    7     1       0.1271414648E-01       4    7    1         0.5758984317E+00      0.1836510777E+01
          0                 2           2             4    7     1       0.1652855047E-02       4    7    1         0.8714267140E-01      0.2300974789E+00
          0                 3           2             4    7     1       0.2475177262E-03       4    7    1         0.1298456492E-01      0.2858789090E-01
          0                 4           1             4    7     1       0.3704170126E-04       4    7    1         0.1948188210E-02      0.4024747691E-02

    ------------------------------------------------
       NWT REQUIRED            4 OUTER ITERATIONS 
       AND A TOTAL OF          7 INNER ITERATIONS.
    ------------------------------------------------

 NO OUTPUT CONTROL FOR STRESS PERIOD   38   TIME STEP    2
 
 SOLVING FOR HEAD 
                                                   Max.-Head-Change                         Max.-Flux-Residual
  Residual-Control   Outer-Iter.   Inner-Iter.     Column Row Layer    Maximum-Head-Change  Column Row Layer    Maximum-Flux-Residual          L2-NORM 
          0                 1           2             3    7     1       0.1264936288E-01       4    7    1         0.5712399543E+00      0.1826281999E+01
          0                 2           2             4    7     1       0.1639535619E-02       4    7    1         0.8644097125E-01      0.2286153050E+00
          0                 3           2             4    7     1       0.2455251225E-03       4    7    1         0.1287990531E-01      0.2837528950E-01
          0                 4           1             4    7     1       0.3674378636E-04       4    7    1         0.1932513549E-02      0.3993114586E-02

    ------------------------------------------------
       NWT REQUIRED            4 OUTER ITERATIONS 
       AND A TOTAL OF          7 INNER ITERATIONS.
    ------------------------------------------------

 NO OUTPUT CONTROL FOR STRESS PERIOD   38   TIME STEP    3
 
 SOLVING FOR HEAD 
                                                   Max.-Head-Change                         Max.-Flux-Residual
  Residual-Control   Outer-Iter.   Inner-Iter.     Column Row Layer    Maximum-Head-Change  Column Row Layer    Maximum-Flux-Residual          L2-NORM 
          0                 1           2             3    7     1       0.1258508576E-01       4    7    1         0.5666378723E+00      0.1813554524E+01
          0                 2           2             4    7     1       0.1626374602E-02       4    7    1         0.8574765908E-01      0.2269514787E+00
          0                 3           2             4    7     1       0.2435559944E-03       4    7    1         0.1277648602E-01      0.2815698750E-01
          0                 4           1             4    7     1       0.3644935127E-04       4    7    1         0.1917022888E-02      0.3961722950E-02

    ------------------------------------------------
       NWT REQUIRED            4 OUTER ITERATIONS 
       AND A TOTAL OF          7 INNER ITERATIONS.
    ------------------------------------------------

 NO OUTPUT CONTROL FOR STRESS PERIOD   38   TIME STEP    4
 
 SOLVING FOR HEAD 
                                                   Max.-Head-Change                         Max.-Flux-Residual
  Residual-Control   Outer-Iter.   Inner-Iter.     Column Row Layer    Maximum-Head-Change  Column Row Layer    Maximum-Flux-Residual          L2-NORM 
          0                 1           2             3    7     1       0.1252106940E-01       4    7    1         0.5620835945E+00      0.1801016796E+01
          0                 2           2             4    7     1       0.1613351231E-02       4    7    1         0.8506156444E-01      0.2253101034E+00
          0                 3           2             4    7     1       0.2416075654E-03       4    7    1         0.1267415139E-01      0.2794124251E-01
          0                 4           1             4    7     1       0.3615802530E-04       4    7    1         0.1901695316E-02      0.3930683737E-02

    ------------------------------------------------
       NWT REQUIRED            4 OUTER ITERATIONS 
       AND A TOTAL OF          7 INNER ITERATIONS.
    ------------------------------------------------

 NO OUTPUT CONTROL FOR STRESS PERIOD   38   TIME STEP    5
 
 SOLVING FOR HEAD 
                                                   Max.-Head-Change                         Max.-Flux-Residual
  Residual-Control   Outer-Iter.   Inner-Iter.     Column Row Layer    Maximum-Head-Change  Column Row Layer    Maximum-Flux-Residual          L2-NORM 
          0                 1           2             3    7     1       0.1245731249E-01       4    7    1         0.5575838824E+00      0.1788671420E+01
          0                 2           2             4    7     1       0.1600481159E-02       4    7    1         0.8438357698E-01      0.2236908085E+00
          0                 3           2             4    7     1       0.2396818753E-03       4    7    1         0.1257301785E-01      0.2772796985E-01
          0                 4           1             4    7     1       0.3587007220E-04       4    7    1         0.1886545990E-02      0.3899976548E-02

    ------------------------------------------------
       NWT REQUIRED            4 OUTER ITERATIONS 
       AND A TOTAL OF          7 INNER ITERATIONS.
    ------------------------------------------------

 NO OUTPUT CONTROL FOR STRESS PERIOD   38   TIME STEP    6
 
 SOLVING FOR HEAD 
                                                   Max.-Head-Change                         Max.-Flux-Residual
  Residual-Control   Outer-Iter.   Inner-Iter.     Column Row Layer    Maximum-Head-Change  Column Row Layer    Maximum-Flux-Residual          L2-NORM 
          0                 1           2             3    7     1       0.1239381403E-01       4    7    1         0.5531228560E+00      0.1776490093E+01
          0                 2           2             4    7     1       0.1587724374E-02       4    7    1         0.8371149716E-01      0.2220911829E+00
          0                 3           2             4    7     1       0.2377733698E-03       4    7    1         0.1247278032E-01      0.2751700167E-01
          0                 4           1             4    7     1       0.3558472127E-04       4    7    1         0.1871532571E-02      0.3869582424E-02

    ------------------------------------------------
       NWT REQUIRED            4 OUTER ITERATIONS 
       AND A TOTAL OF          7 INNER ITERATIONS.
    ------------------------------------------------

 NO OUTPUT CONTROL FOR STRESS PERIOD   38   TIME STEP    7
 
 SOLVING FOR HEAD 
                                                   Max.-Head-Change                         Max.-Flux-Residual
  Residual-Control   Outer-Iter.   Inner-Iter.     Column Row Layer    Maximum-Head-Change  Column Row Layer    Maximum-Flux-Residual          L2-NORM 
          0                 1           2             3    7     1       0.1233057360E-01       4    7    1         0.5487150145E+00      0.1764490253E+01
          0                 2           2             4    7     1       0.1575117965E-02       4    7    1         0.8304735262E-01      0.2205129193E+00
          0                 3           2             4    7     1       0.2358872467E-03       4    7    1         0.1237372272E-01      0.2730850636E-01
          0                 4           1             4    7     1       0.3530269993E-04       4    7    1         0.1856694807E-02      0.3839523573E-02

    ------------------------------------------------
       NWT REQUIRED            4 OUTER ITERATIONS 
       AND A TOTAL OF          7 INNER ITERATIONS.
    ------------------------------------------------

 NO OUTPUT CONTROL FOR STRESS PERIOD   38   TIME STEP    8
 
 SOLVING FOR HEAD 
                                                   Max.-Head-Change                         Max.-Flux-Residual
  Residual-Control   Outer-Iter.   Inner-Iter.     Column Row Layer    Maximum-Head-Change  Column Row Layer    Maximum-Flux-Residual          L2-NORM 
          0                 1           2             3    7     1       0.1226759189E-01       4    7    1         0.5443592824E+00      0.1752655179E+01
          0                 2           2             4    7     1       0.1562658265E-02       4    7    1         0.8239096131E-01      0.2189544193E+00
          0                 3           2             4    7     1       0.2340229095E-03       4    7    1         0.1227581511E-01      0.2710232538E-01
          0                 4           1             4    7     1       0.3502391466E-04       4    7    1         0.1842027929E-02      0.3809786122E-02

    ------------------------------------------------
       NWT REQUIRED            4 OUTER ITERATIONS 
       AND A TOTAL OF          7 INNER ITERATIONS.
    ------------------------------------------------

 NO OUTPUT CONTROL FOR STRESS PERIOD   38   TIME STEP    9
 
 SOLVING FOR HEAD 
                                                   Max.-Head-Change                         Max.-Flux-Residual
  Residual-Control   Outer-Iter.   Inner-Iter.     Column Row Layer    Maximum-Head-Change  Column Row Layer    Maximum-Flux-Residual          L2-NORM 
          0                 1           2             3    7     1       0.1220486908E-01       4    7    1         0.5400471944E+00      0.1740985517E+01
          0                 2           2             4    7     1       0.1550324964E-02       4    7    1         0.8174118510E-01      0.2174161155E+00
          0                 3           2             4    7     1       0.2321776399E-03       4    7    1         0.1217890484E-01      0.2689856540E-01
          0                 4           1             4    7     1       0.3474800178E-04       4    7    1         0.1827511487E-02      0.3780381590E-02

    ------------------------------------------------
       NWT REQUIRED            4 OUTER ITERATIONS 
       AND A TOTAL OF          7 INNER ITERATIONS.
    ------------------------------------------------

 NO OUTPUT CONTROL FOR STRESS PERIOD   38   TIME STEP   10
 
 SOLVING FOR HEAD 
                                                   Max.-Head-Change                         Max.-Flux-Residual
  Residual-Control   Outer-Iter.   Inner-Iter.     Column Row Layer    Maximum-Head-Change  Column Row Layer    Maximum-Flux-Residual          L2-NORM 
          0                 1           2             3    7     1       0.1214264489E-01       4    7    1         0.5357783832E+00      0.1729470401E+01
          0                 2           2             4    7     1       0.1538115428E-02       4    7    1         0.8109792450E-01      0.2158962764E+00
          0                 3           2             4    7     1       0.2303508947E-03       4    7    1         0.1208296746E-01      0.2669696816E-01
          0                 4           1             4    7     1       0.3447485914E-04       4    7    1         0.1813140761E-02      0.3751277794E-02

    ------------------------------------------------
       NWT REQUIRED            4 OUTER ITERATIONS 
       AND A TOTAL OF          7 INNER ITERATIONS.
    ------------------------------------------------

 NO OUTPUT CONTROL FOR STRESS PERIOD   38   TIME STEP   11
 
 SOLVING FOR HEAD 
                                                   Max.-Head-Change                         Max.-Flux-Residual
  Residual-Control   Outer-Iter.   Inner-Iter.     Column Row Layer    Maximum-Head-Change  Column Row Layer    Maximum-Flux-Residual          L2-NORM 
          0                 1           2             3    7     1       0.1208043040E-01       4    7    1         0.5315595523E+00      0.1718114578E+01
          0                 2           2             4    7     1       0.1526047529E-02       4    7    1         0.8046212253E-01      0.2143959536E+00
          0                 3           2             4    7     1       0.2285452746E-03       4    7    1         0.1198814282E-01      0.2649774281E-01
          0                 4           1             4    7     1       0.3420486702E-04       4    7    1         0.1798936006E-02      0.3722500861E-02

    ------------------------------------------------
       NWT REQUIRED            4 OUTER ITERATIONS 
       AND A TOTAL OF          7 INNER ITERATIONS.
    ------------------------------------------------

 NO OUTPUT CONTROL FOR STRESS PERIOD   38   TIME STEP   12
 
 SOLVING FOR HEAD 
                                                   Max.-Head-Change                         Max.-Flux-Residual
  Residual-Control   Outer-Iter.   Inner-Iter.     Column Row Layer    Maximum-Head-Change  Column Row Layer    Maximum-Flux-Residual          L2-NORM 
          0                 1           2             3    7     1       0.1201847212E-01       4    7    1         0.5273824107E+00      0.1706909636E+01
          0                 2           2             4    7     1       0.1514098971E-02       4    7    1         0.7983259185E-01      0.2129138967E+00
          0                 3           2             4    7     1       0.2267575437E-03       4    7    1         0.1189425723E-01      0.2630068438E-01
          0                 4           1             4    7     1       0.3393755459E-04       4    7    1         0.1784872051E-02      0.3694020232E-02

    ------------------------------------------------
       NWT REQUIRED            4 OUTER ITERATIONS 
       AND A TOTAL OF          7 INNER ITERATIONS.
    ------------------------------------------------

 NO OUTPUT CONTROL FOR STRESS PERIOD   38   TIME STEP   13
 
 SOLVING FOR HEAD 
                                                   Max.-Head-Change                         Max.-Flux-Residual
  Residual-Control   Outer-Iter.   Inner-Iter.     Column Row Layer    Maximum-Head-Change  Column Row Layer    Maximum-Flux-Residual          L2-NORM 
          0                 1           2             3    7     1       0.1195701155E-01       4    7    1         0.5232463692E+00      0.1695855781E+01
          0                 2           2             4    7     1       0.1502271497E-02       4    7    1         0.7920937184E-01      0.2114508712E+00
          0                 3           2             4    7     1       0.2249882194E-03       4    7    1         0.1180132987E-01      0.2610600069E-01
          0                 4           1             4    7     1       0.3367303265E-04       4    7    1         0.1770953757E-02      0.3665876991E-02

    ------------------------------------------------
       NWT REQUIRED            4 OUTER ITERATIONS 
       AND A TOTAL OF          7 INNER ITERATIONS.
    ------------------------------------------------

 NO OUTPUT CONTROL FOR STRESS PERIOD   38   TIME STEP   14
 
 SOLVING FOR HEAD 
                                                   Max.-Head-Change                         Max.-Flux-Residual
  Residual-Control   Outer-Iter.   Inner-Iter.     Column Row Layer    Maximum-Head-Change  Column Row Layer    Maximum-Flux-Residual          L2-NORM 
          0                 1           2             3    7     1       0.1189555912E-01       4    7    1         0.5191587731E+00      0.1684939863E+01
          0                 2           2             4    7     1       0.1490579292E-02       4    7    1         0.7859331186E-01      0.2100047560E+00
          0                 3           2             4    7     1       0.2232389080E-03       4    7    1         0.1170946151E-01      0.2591336300E-01
          0                 4           1             4    7     1       0.3341147340E-04       4    7    1         0.1757192176E-02      0.3638018699E-02

    ------------------------------------------------
       NWT REQUIRED            4 OUTER ITERATIONS 
       AND A TOTAL OF          7 INNER ITERATIONS.
    ------------------------------------------------

 NO OUTPUT CONTROL FOR STRESS PERIOD   38   TIME STEP   15
 
 SOLVING FOR HEAD 
                                                   Max.-Head-Change                         Max.-Flux-Residual
  Residual-Control   Outer-Iter.   Inner-Iter.     Column Row Layer    Maximum-Head-Change  Column Row Layer    Maximum-Flux-Residual          L2-NORM 
          0                 1           2             3    7     1       0.1183460351E-01       4    7    1         0.5151183199E+00      0.1674172133E+01
          0                 2           2             4    7     1       0.1479021408E-02       4    7    1         0.7798433056E-01      0.2085771668E+00
          0                 3           2             4    7     1       0.2215096645E-03       4    7    1         0.1161864826E-01      0.2572301408E-01
          0                 4           1             4    7     1       0.3315291085E-04       4    7    1         0.1743588365E-02      0.3610479905E-02

    ------------------------------------------------
       NWT REQUIRED            4 OUTER ITERATIONS 
       AND A TOTAL OF          7 INNER ITERATIONS.
    ------------------------------------------------

 NO OUTPUT CONTROL FOR STRESS PERIOD   38   TIME STEP   16
 
 SOLVING FOR HEAD 
                                                   Max.-Head-Change                         Max.-Flux-Residual
  Residual-Control   Outer-Iter.   Inner-Iter.     Column Row Layer    Maximum-Head-Change  Column Row Layer    Maximum-Flux-Residual          L2-NORM 
          0                 1           2             3    7     1       0.1177389727E-01       4    7    1         0.5111169583E+00      0.1663542352E+01
          0                 2           2             4    7     1       0.1467576997E-02       4    7    1         0.7738128511E-01      0.2071665530E+00
          0                 3           2             4    7     1       0.2197975470E-03       4    7    1         0.1152873065E-01      0.2553474802E-01
          0                 4           1             4    7     1       0.3289692782E-04       4    7    1         0.1730119689E-02      0.3583226624E-02

    ------------------------------------------------
       NWT REQUIRED            4 OUTER ITERATIONS 
       AND A TOTAL OF          7 INNER ITERATIONS.
    ------------------------------------------------

 NO OUTPUT CONTROL FOR STRESS PERIOD   38   TIME STEP   17
 
 SOLVING FOR HEAD 
                                                   Max.-Head-Change                         Max.-Flux-Residual
  Residual-Control   Outer-Iter.   Inner-Iter.     Column Row Layer    Maximum-Head-Change  Column Row Layer    Maximum-Flux-Residual          L2-NORM 
          0                 1           2             3    7     1       0.1171319862E-01       4    7    1         0.5071617149E+00      0.1653049540E+01
          0                 2           2             4    7     1       0.1456263354E-02       4    7    1         0.7678512323E-01      0.2057735060E+00
          0                 3           2             4    7     1       0.2181049500E-03       4    7    1         0.1143984062E-01      0.2534872114E-01
          0                 4           1             4    7     1       0.3264385972E-04       4    7    1         0.1716804415E-02      0.3556299028E-02

    ------------------------------------------------
       NWT REQUIRED            4 OUTER ITERATIONS 
       AND A TOTAL OF          7 INNER ITERATIONS.
    ------------------------------------------------

 NO OUTPUT CONTROL FOR STRESS PERIOD   38   TIME STEP   18
 
 SOLVING FOR HEAD 
                                                   Max.-Head-Change                         Max.-Flux-Residual
  Residual-Control   Outer-Iter.   Inner-Iter.     Column Row Layer    Maximum-Head-Change  Column Row Layer    Maximum-Flux-Residual          L2-NORM 
          0                 1           2             3    7     1       0.1165299726E-01       4    7    1         0.5032443826E+00      0.1642690651E+01
          0                 2           2             4    7     1       0.1445059538E-02       4    7    1         0.7619472061E-01      0.2043968335E+00
          0                 3           2             4    7     1       0.2164288946E-03       4    7    1         0.1135181623E-01      0.2516463164E-01
          0                 4           1             4    7     1       0.3239327759E-04       4    7    1         0.1703619580E-02      0.3529636547E-02

    ------------------------------------------------
       NWT REQUIRED            4 OUTER ITERATIONS 
       AND A TOTAL OF          7 INNER ITERATIONS.
    ------------------------------------------------

 NO OUTPUT CONTROL FOR STRESS PERIOD   38   TIME STEP   19
 
 SOLVING FOR HEAD 
                                                   Max.-Head-Change                         Max.-Flux-Residual
  Residual-Control   Outer-Iter.   Inner-Iter.     Column Row Layer    Maximum-Head-Change  Column Row Layer    Maximum-Flux-Residual          L2-NORM 
          0                 1           2             3    7     1       0.1159304381E-01       4    7    1         0.4993719923E+00      0.1632457439E+01
          0                 2           2             4    7     1       0.1433983010E-02       4    7    1         0.7561103108E-01      0.2030362723E+00
          0                 3           2             4    7     1       0.2147718077E-03       4    7    1         0.1126479100E-01      0.2498264994E-01
          0                 4           1             4    7     1       0.3214552334E-04       4    7    1         0.1690583733E-02      0.3503272564E-02

    ------------------------------------------------
       NWT REQUIRED            4 OUTER ITERATIONS 
       AND A TOTAL OF          7 INNER ITERATIONS.
    ------------------------------------------------

 NO OUTPUT CONTROL FOR STRESS PERIOD   38   TIME STEP   20
 
 SOLVING FOR HEAD 
                                                   Max.-Head-Change                         Max.-Flux-Residual
  Residual-Control   Outer-Iter.   Inner-Iter.     Column Row Layer    Maximum-Head-Change  Column Row Layer    Maximum-Flux-Residual          L2-NORM 
          0                 1           2             3    7     1       0.1153333748E-01       4    7    1         0.4955363671E+00      0.1622358071E+01
          0                 2           2             4    7     1       0.1423013726E-02       4    7    1         0.7503294073E-01      0.2016928187E+00
          0                 3           2             4    7     1       0.2131309637E-03       4    7    1         0.1117861331E-01      0.2480281137E-01
          0                 4           1             4    7     1       0.3190022444E-04       4    7    1         0.1677676236E-02      0.3477211025E-02

    ------------------------------------------------
       NWT REQUIRED            4 OUTER ITERATIONS 
       AND A TOTAL OF          7 INNER ITERATIONS.
    ------------------------------------------------

 NO OUTPUT CONTROL FOR STRESS PERIOD   38   TIME STEP   21
 
 SOLVING FOR HEAD 
                                                   Max.-Head-Change                         Max.-Flux-Residual
  Residual-Control   Outer-Iter.   Inner-Iter.     Column Row Layer    Maximum-Head-Change  Column Row Layer    Maximum-Flux-Residual          L2-NORM 
          0                 1           2             3    7     1       0.1147387923E-01       4    7    1         0.4917446371E+00      0.1612385373E+01
          0                 2           2             4    7     1       0.1412168966E-02       4    7    1         0.7446141576E-01      0.2003650965E+00
          0                 3           2             4    7     1       0.2115086812E-03       4    7    1         0.1109341332E-01      0.2462490863E-01
          0                 4           1             4    7     1       0.3165769013E-04       4    7    1         0.1664914495E-02      0.3451420407E-02

    ------------------------------------------------
       NWT REQUIRED            4 OUTER ITERATIONS 
       AND A TOTAL OF          7 INNER ITERATIONS.
    ------------------------------------------------

 NO OUTPUT CONTROL FOR STRESS PERIOD   38   TIME STEP   22
 
 SOLVING FOR HEAD 
                                                   Max.-Head-Change                         Max.-Flux-Residual
  Residual-Control   Outer-Iter.   Inner-Iter.     Column Row Layer    Maximum-Head-Change  Column Row Layer    Maximum-Flux-Residual          L2-NORM 
          0                 1           2             3    7     1       0.1141491098E-01       4    7    1         0.4879886847E+00      0.1602529911E+01
          0                 2           2             4    7     1       0.1401427927E-02       4    7    1         0.7389532818E-01      0.1990524396E+00
          0                 3           2             4    7     1       0.2099020341E-03       4    7    1         0.1100903102E-01      0.2444894174E-01
          0                 4           1             4    7     1       0.3141751037E-04       4    7    1         0.1652276131E-02      0.3425904071E-02

    ------------------------------------------------
       NWT REQUIRED            4 OUTER ITERATIONS 
       AND A TOTAL OF          7 INNER ITERATIONS.
    ------------------------------------------------

 NO OUTPUT CONTROL FOR STRESS PERIOD   38   TIME STEP   23
 
 SOLVING FOR HEAD 
                                                   Max.-Head-Change                         Max.-Flux-Residual
  Residual-Control   Outer-Iter.   Inner-Iter.     Column Row Layer    Maximum-Head-Change  Column Row Layer    Maximum-Flux-Residual          L2-NORM 
          0                 1           2             3    7     1       0.1135594118E-01       4    7    1         0.4842755693E+00      0.1592805782E+01
          0                 2           2             4    7     1       0.1390809633E-02       4    7    1         0.7333567859E-01      0.1977566885E+00
          0                 3           2             4    7     1       0.2083138094E-03       4    7    1         0.1092561557E-01      0.2427514782E-01
          0                 4           1             4    7     1       0.3118009359E-04       4    7    1         0.1639782824E-02      0.3400698651E-02

    ------------------------------------------------
       NWT REQUIRED            4 OUTER ITERATIONS 
       AND A TOTAL OF          7 INNER ITERATIONS.
    ------------------------------------------------

 NO OUTPUT CONTROL FOR STRESS PERIOD   38   TIME STEP   24
 
 SOLVING FOR HEAD 
                                                   Max.-Head-Change                         Max.-Flux-Residual
  Residual-Control   Outer-Iter.   Inner-Iter.     Column Row Layer    Maximum-Head-Change  Column Row Layer    Maximum-Flux-Residual          L2-NORM 
          0                 1           2             3    7     1       0.1129746191E-01       4    7    1         0.4806046738E+00      0.1583198186E+01
          0                 2           2             4    7     1       0.1380310399E-02       4    7    1         0.7278232771E-01      0.1964757398E+00
          0                 3           2             4    7     1       0.2067432712E-03       4    7    1         0.1084313296E-01      0.2410320619E-01
          0                 4           1             4    7     1       0.3094530385E-04       4    7    1         0.1627428252E-02      0.3375752593E-02

    ------------------------------------------------
       NWT REQUIRED            4 OUTER ITERATIONS 
       AND A TOTAL OF          7 INNER ITERATIONS.
    ------------------------------------------------

 NO OUTPUT CONTROL FOR STRESS PERIOD   38   TIME STEP   25
 
 SOLVING FOR HEAD 
                                                   Max.-Head-Change                         Max.-Flux-Residual
  Residual-Control   Outer-Iter.   Inner-Iter.     Column Row Layer    Maximum-Head-Change  Column Row Layer    Maximum-Flux-Residual          L2-NORM 
          0                 1           2             3    7     1       0.1123898244E-01       4    7    1         0.4769751244E+00      0.1573707958E+01
          0                 2           2             4    7     1       0.1369929253E-02       4    7    1         0.7223517825E-01      0.1952100510E+00
          0                 3           2             4    7     1       0.2051904206E-03       4    7    1         0.1076157979E-01      0.2393325166E-01
          0                 4           1             4    7     1       0.3071316141E-04       4    7    1         0.1615212840E-02      0.3351091286E-02

    ------------------------------------------------
       NWT REQUIRED            4 OUTER ITERATIONS 
       AND A TOTAL OF          7 INNER ITERATIONS.
    ------------------------------------------------

 NO OUTPUT CONTROL FOR STRESS PERIOD   38   TIME STEP   26
 
 SOLVING FOR HEAD 
                                                   Max.-Head-Change                         Max.-Flux-Residual
  Residual-Control   Outer-Iter.   Inner-Iter.     Column Row Layer    Maximum-Head-Change  Column Row Layer    Maximum-Flux-Residual          L2-NORM 
          0                 1           2             3    7     1       0.1118099155E-01       4    7    1         0.4733789541E+00      0.1564329430E+01
          0                 2           2             4    7     1       0.1359644954E-02       4    7    1         0.7169310609E-01      0.1939584564E+00
          0                 3           2             4    7     1       0.2036521696E-03       4    7    1         0.1068079011E-01      0.2376507976E-01
          0                 4           1             4    7     1       0.3048321669E-04       4    7    1         0.1603112624E-02      0.3326679472E-02

    ------------------------------------------------
       NWT REQUIRED            4 OUTER ITERATIONS 
       AND A TOTAL OF          7 INNER ITERATIONS.
    ------------------------------------------------

 NO OUTPUT CONTROL FOR STRESS PERIOD   38   TIME STEP   27
 
 SOLVING FOR HEAD 
                                                   Max.-Head-Change                         Max.-Flux-Residual
  Residual-Control   Outer-Iter.   Inner-Iter.     Column Row Layer    Maximum-Head-Change  Column Row Layer    Maximum-Flux-Residual          L2-NORM 
          0                 1           2             3    7     1       0.1112324091E-01       4    7    1         0.4698159506E+00      0.1555066298E+01
          0                 2           2             4    7     1       0.1349457406E-02       4    7    1         0.7115608627E-01      0.1927217871E+00
          0                 3           2             4    7     1       0.2021285683E-03       4    7    1         0.1060076497E-01      0.2359881064E-01
          0                 4           1             4    7     1       0.3025548634E-04       4    7    1         0.1591128154E-02      0.3302541049E-02

    ------------------------------------------------
       NWT REQUIRED            4 OUTER ITERATIONS 
       AND A TOTAL OF          7 INNER ITERATIONS.
    ------------------------------------------------

 NO OUTPUT CONTROL FOR STRESS PERIOD   38   TIME STEP   28
 
 SOLVING FOR HEAD 
                                                   Max.-Head-Change                         Max.-Flux-Residual
  Residual-Control   Outer-Iter.   Inner-Iter.     Column Row Layer    Maximum-Head-Change  Column Row Layer    Maximum-Flux-Residual          L2-NORM 
          0                 1           2             3    7     1       0.1106573085E-01       4    7    1         0.4663005744E+00      0.1545914950E+01
          0                 2           2             4    7     1       0.1339403684E-02       4    7    1         0.7062614402E-01      0.1914998603E+00
          0                 3           2             4    7     1       0.2006248181E-03       4    7    1         0.1052178832E-01      0.2343449788E-01
          0                 4           1             4    7     1       0.3003070066E-04       4    7    1         0.1579299287E-02      0.3278683021E-02

    ------------------------------------------------
       NWT REQUIRED            4 OUTER ITERATIONS 
       AND A TOTAL OF          7 INNER ITERATIONS.
    ------------------------------------------------

 NO OUTPUT CONTROL FOR STRESS PERIOD   38   TIME STEP   29
 
 SOLVING FOR HEAD 
                                                   Max.-Head-Change                         Max.-Flux-Residual
  Residual-Control   Outer-Iter.   Inner-Iter.     Column Row Layer    Maximum-Head-Change  Column Row Layer    Maximum-Flux-Residual          L2-NORM 
          0                 1           2             3    7     1       0.1100846340E-01       4    7    1         0.4628171039E+00      0.1536873874E+01
          0                 2           2             4    7     1       0.1329443126E-02       4    7    1         0.7010106618E-01      0.1902920160E+00
          0                 3           2             4    7     1       0.1991351759E-03       4    7    1         0.1044354795E-01      0.2327195031E-01
          0                 4           1             4    7     1       0.2980804756E-04       4    7    1         0.1567581921E-02      0.3255077474E-02

    ------------------------------------------------
       NWT REQUIRED            4 OUTER ITERATIONS 
       AND A TOTAL OF          7 INNER ITERATIONS.
    ------------------------------------------------

 NO OUTPUT CONTROL FOR STRESS PERIOD   38   TIME STEP   30



 STREAM LISTING     PERIOD     38   STEP       30

 LAYER ROW COL. STREAM  RCH.  FLOW INTO     FLOW TO   FLOW OUT OF   OVRLND.     DIRECT     STREAM       STREAM     STREAM     STREAM   STREAMBED  STREAMBED
                SEG.NO.  NO.  STRM. RCH.    AQUIFER    STRM. RCH.    RUNOFF     PRECIP       ET          HEAD       DEPTH      WIDTH   CONDCTNC.   GRADIENT

   1    1    1     1     1    7.1248E+00  1.2038E-01   7.0044E+00  0.000E+00  0.000E+00  0.000E+00  1.09385E+03  8.024E-01  7.035E+00  3.166E-02  1.267E+00
   1    2    2     1     2    7.0044E+00  1.8491E-01   6.8195E+00  0.000E+00  0.000E+00  0.000E+00  1.08886E+03  7.976E-01  6.956E+00  4.869E-02  1.266E+00
   1    3    3     1     3    6.8195E+00  1.5635E-01   6.6631E+00  0.000E+00  0.000E+00  0.000E+00  1.08321E+03  7.928E-01  6.870E+00  4.122E-02  1.264E+00
   1    3    4     1     4    6.6631E+00  1.4286E-01   6.5203E+00  0.000E+00  0.000E+00  0.000E+00  1.07820E+03  7.886E-01  6.794E+00  3.771E-02  1.263E+00
   1    4    5     2     1    4.5203E+00  2.6715E-01   4.2531E+00  0.000E+00  0.000E+00  0.000E+00  1.07236E+03  4.250E-01  1.200E+01  7.800E-02  1.142E+00
   1    5    6     2     2    4.2531E+00  2.0467E-01   4.0485E+00  0.000E+00  0.000E+00  0.000E+00  1.06692E+03  4.112E-01  1.200E+01  6.000E-02  1.137E+00
   1    6    6     2     3    4.0485E+00  2.0393E-01   3.8445E+00  0.000E+00  0.000E+00  0.000E+00  1.06219E+03  3.989E-01  1.200E+01  6.000E-02  1.133E+00
   1    7    6     2     4    3.8445E+00  2.0319E-01   3.6413E+00  0.000E+00  0.000E+00  0.000E+00  1.05746E+03  3.864E-01  1.200E+01  6.000E-02  1.129E+00
   1    8    6     2     5    3.6413E+00  2.0242E-01   3.4389E+00  0.000E+00  0.000E+00  0.000E+00  1.05273E+03  3.737E-01  1.200E+01  6.000E-02  1.125E+00
   1    3    5     3     1    2.0000E+00  2.8252E-01   1.7175E+00  0.000E+00  0.000E+00  0.000E+00  1.07555E+03  1.909E+00  9.636E+00  7.227E-02  1.955E+00
   1    3    6     3     2    1.7175E+00  2.4905E-01   1.4684E+00  0.000E+00  0.000E+00  0.000E+00  1.07264E+03  1.727E+00  8.909E+00  6.682E-02  1.864E+00
   1    3    7     3     3    1.4684E+00  1.9718E-01   1.2712E+00  0.000E+00  0.000E+00  0.000E+00  1.06987E+03  1.555E+00  8.218E+00  5.547E-02  1.777E+00
   1    4    8     3     4    1.2712E+00  2.2567E-01   1.0456E+00  0.000E+00  0.000E+00  0.000E+00  1.06682E+03  1.364E+00  7.455E+00  6.709E-02  1.682E+00
   1    5    8     3     5    1.0456E+00  1.5790E-01   8.8768E-01  0.000E+00  0.000E+00  0.000E+00  1.06362E+03  1.164E+00  6.655E+00  4.991E-02  1.582E+00
   1    6    8     3     6    8.8768E-01  5.5980E-02   8.3170E-01  0.000E+00  0.000E+00  0.000E+00  1.06158E+03  1.036E+00  6.145E+00  1.844E-02  1.518E+00
   1    5   10     4     1    1.0000E+01  9.0919E-02   9.9091E+00  0.000E+00  0.000E+00  0.000E+00  1.07836E+03  6.368E-01  1.000E+01  2.500E-02  1.212E+00
   1    5    9     4     2    9.9091E+00  1.8158E-01   9.7275E+00  0.000E+00  0.000E+00  0.000E+00  1.07154E+03  6.315E-01  1.000E+01  5.000E-02  1.211E+00
   1    6    8     4     3    9.7275E+00  1.2689E-01   9.6006E+00  0.000E+00  0.000E+00  0.000E+00  1.06381E+03  6.256E-01  1.000E+01  3.500E-02  1.209E+00
   1    6    8     5     1    1.0432E+01  2.2686E-01   1.0205E+01  0.000E+00  0.000E+00  0.000E+00  1.05868E+03  6.790E-01  1.542E+01  6.166E-02  1.226E+00
   1    7    7     5     2    1.0205E+01  2.7894E-01   9.9265E+00  0.000E+00  0.000E+00  0.000E+00  1.05417E+03  6.732E-01  1.519E+01  7.594E-02  1.224E+00
   1    8    7     5     3    9.9265E+00  1.9221E-01   9.7343E+00  0.000E+00  0.000E+00  0.000E+00  1.04992E+03  6.676E-01  1.497E+01  5.241E-02  1.223E+00
   1    8    6     5     4    9.7343E+00  1.3577E-01   9.5985E+00  0.000E+00  0.000E+00  0.000E+00  1.04691E+03  6.637E-01  1.482E+01  3.706E-02  1.221E+00
   1    9    6     6     1    1.3037E+01  2.2931E-01   1.2808E+01  0.000E+00  0.000E+00  0.000E+00  1.04355E+03  8.218E-01  1.200E+01  6.000E-02  1.274E+00
   1   10    7     6     2    1.2808E+01  2.2878E-01   1.2579E+01  0.000E+00  0.000E+00  0.000E+00  1.03899E+03  8.131E-01  1.200E+01  6.000E-02  1.271E+00
   1   11    7     6     3    1.2579E+01  2.2825E-01   1.2351E+01  0.000E+00  0.000E+00  0.000E+00  1.03444E+03  8.042E-01  1.200E+01  6.000E-02  1.268E+00
   1   12    7     6     4    1.2351E+01  2.2772E-01   1.2123E+01  0.000E+00  0.000E+00  0.000E+00  1.02989E+03  7.954E-01  1.200E+01  6.000E-02  1.265E+00
   1   13    7     6     5    1.2123E+01  5.2548E-03   1.2118E+01  0.000E+00  0.000E+00  0.000E+00  1.02670E+03  7.908E-01  1.200E+01  2.400E-02  7.298E-02
   1   14    9     7     1    1.5000E+02  1.3978E+00   1.4860E+02  0.000E+00  0.000E+00  0.000E+00  1.03987E+03  2.288E+00  5.529E+01  5.593E-01  8.331E-01
   1   13    8     7     2    1.4860E+02  2.0259E+00   1.4658E+02  0.000E+00  0.000E+00  0.000E+00  1.03478E+03  2.278E+00  5.525E+01  6.147E-01  1.099E+00
   1   13    7     7     3    1.4658E+02  1.7904E+00   1.4479E+02  0.000E+00  0.000E+00  0.000E+00  1.02969E+03  2.268E+00  5.521E+01  5.583E-01  1.069E+00
   1   13    6     8     1    1.5690E+02  1.1618E+00   1.5574E+02  0.000E+00  0.000E+00  0.000E+00  1.02474E+03  2.861E+00  4.148E+01  4.227E-01  9.161E-01
   1   13    5     8     2    1.5574E+02  4.1073E-01   1.5533E+02  0.000E+00  0.000E+00  0.000E+00  1.01848E+03  2.855E+00  4.140E+01  4.219E-01  3.245E-01
   1   13    4     8     3    1.5533E+02 -1.6134E+00   1.5694E+02  0.000E+00  0.000E+00  0.000E+00  1.01223E+03  2.860E+00  4.146E+01  4.225E+00 -1.273E-01
   1   13    3     8     4    1.5694E+02 -3.2433E+00   1.6019E+02  0.000E+00  0.000E+00  0.000E+00  1.00600E+03  2.876E+00  4.170E+01  4.250E+00 -2.544E-01
   1   13    2     8     5    1.6019E+02 -2.4828E+00   1.6267E+02  0.000E+00  0.000E+00  0.000E+00  9.99771E+02  2.895E+00  4.198E+01  4.278E+00 -1.934E-01
   1   13    1     8     6    1.6267E+02 -1.9603E+00   1.6463E+02  0.000E+00  0.000E+00  0.000E+00  9.94785E+02  2.910E+00  4.220E+01  2.580E+00 -2.532E-01
   1    8    6     9     1    0.0000E+00  0.0000E+00   0.0000E+00  0.000E+00  0.000E+00  0.000E+00  1.07875E+03  0.000E+00  4.000E+00  0.000E+00  1.000E+00
   1    8    5     9     2    0.0000E+00  0.0000E+00   0.0000E+00  0.000E+00  0.000E+00  0.000E+00  1.07825E+03  0.000E+00  4.000E+00  0.000E+00  1.000E+00





UNSATURATED ZONE PACKAGE VOLUMETRIC BUDGET FOR  TIME STEP    30 STRESS PERIOD   38
  ------------------------------------------------------------------------------



     CUMULATIVE VOLUMES      L**3       RATES FOR THIS TIME STEP      L**3/T
     ------------------                 ------------------------

           IN:                                      IN:
           ---                                      ---
        INFILTRATION =  1756356750.8535          INFILTRATION =           0.8475

          OUT:                                     OUT:
          ----                                     ----
              UZF ET =  1285038149.2662                UZF ET =           0.7500
        UZF RECHARGE =   120194839.0536          UZF RECHARGE =           0.9556

            IN - OUT =   351123762.5337              IN - OUT =          -0.8581

          STORAGE:                                 STORAGE:
          --------                                 --------
      STORAGE CHANGE =   351124013.5587        STORAGE CHANGE =          -0.8581

 PERCENT DISCREPANCY IS DIFFERENCE BETWEEN IN-OUT MINUS CHANGE IN STORAGE
 DIVIDED BY THE AVERAGE OF IN AND OUT TIMES 100

 PERCENT DISCREPANCY =          -0.00     PERCENT DISCREPANCY =           0.00






1
  VOLUMETRIC BUDGET FOR AGRICULTURAL FIELDS AT  END OF TIME STEP   30, STRESS PERIOD  38
  ------------------------------------------------------------------------------

     CUMULATIVE VOLUMES      L**3       RATES FOR THIS TIME STEP      L**3/T
     ------------------                 ------------------------

           IN:                                      IN:
           ---                                      ---
               AG WELLS  =  1086541952.0000                 AG WELLS  =           0.0000
      DIVERSION SEGMENTS =   587377792.0000        DIVERSION SEGMENTS =           0.0000
       IRRIGATION PONDS  =           0.0000         IRRIGATION PONDS  =           0.0000
           GW IRRIGATION =           0.0000             GW IRRIGATION =           0.0000
           SW IRRIGATION =           0.0000             SW IRRIGATION =           0.0000
        SYSTEM LOSSES GW =           0.0000          SYSTEM LOSSES GW =           0.0000
        SYSTEM LOSSES SW =           0.0000          SYSTEM LOSSES SW =           0.0000

                TOTAL IN =  1673919744.0000                  TOTAL IN =           0.0000

          OUT:                                     OUT:
          ----                                     ----
               AG WELLS  =           0.0000                 AG WELLS  =           0.0000
      DIVERSION SEGMENTS =           0.0000        DIVERSION SEGMENTS =           0.0000
       IRRIGATION PONDS  =           0.0000         IRRIGATION PONDS  =           0.0000
           GW IRRIGATION =  1086541952.0000             GW IRRIGATION =           0.0000
           SW IRRIGATION =   587388864.0000             SW IRRIGATION =           0.0000
        SYSTEM LOSSES GW =           0.0000          SYSTEM LOSSES GW =           0.0000
        SYSTEM LOSSES SW =           0.0000          SYSTEM LOSSES SW =           0.0000

               TOTAL OUT =  1673930752.0000                 TOTAL OUT =           0.0000

                IN - OUT =      -11008.0000                  IN - OUT =           0.0000

     PERCENT DISCREPANCY =          -0.00         PERCENT DISCREPANCY =           0.00



1
  VOLUMETRIC BUDGET FOR ENTIRE MODEL AT END OF TIME STEP   30, STRESS PERIOD  38
  ------------------------------------------------------------------------------

     CUMULATIVE VOLUMES      L**3       RATES FOR THIS TIME STEP      L**3/T
     ------------------                 ------------------------

           IN:                                      IN:
           ---                                      ---
             STORAGE     =  1650026624.0000               STORAGE     =           3.9912
       CONSTANT HEAD     =           0.0000         CONSTANT HEAD     =           0.0000
     HEAD DEP BOUNDS     =    28107832.0000       HEAD DEP BOUNDS     =           0.2900
      STREAM LEAKAGE     =  1163064960.0000        STREAM LEAKAGE     =          11.7933
        UZF RECHARGE     =   120194896.0000          UZF RECHARGE     =           0.9556
               GW ET     =           0.0000                 GW ET     =           0.0000
     SURFACE LEAKAGE     =           0.0000       SURFACE LEAKAGE     =           0.0000
           AG WELLS      =           0.0000             AG WELLS      =           0.0000

                TOTAL IN =  2961394176.0000                  TOTAL IN =          17.0302

          OUT:                                     OUT:
          ----                                     ----
             STORAGE     =   885250112.0000               STORAGE     =           7.4426
       CONSTANT HEAD     =           0.0000         CONSTANT HEAD     =           0.0000
     HEAD DEP BOUNDS     =    28022704.0000       HEAD DEP BOUNDS     =           0.2867
      STREAM LEAKAGE     =   961564672.0000        STREAM LEAKAGE     =           9.2997
        UZF RECHARGE     =           0.0000          UZF RECHARGE     =           0.0000
               GW ET     =           0.0000                 GW ET     =           0.0000
     SURFACE LEAKAGE     =           0.0000       SURFACE LEAKAGE     =           0.0000
           AG WELLS      =  1086541952.0000             AG WELLS      =           0.0000

               TOTAL OUT =  2961379328.0000                 TOTAL OUT =          17.0290

                IN - OUT =       14848.0000                  IN - OUT =       1.1806E-03

     PERCENT DISCREPANCY =           0.00         PERCENT DISCREPANCY =           0.01






         TIME SUMMARY AT END OF TIME STEP   30 IN STRESS PERIOD   38
                    SECONDS     MINUTES      HOURS       DAYS        YEARS
                    -----------------------------------------------------------
   TIME STEP LENGTH  87667.      1461.1      24.352      1.0147     2.77799E-03
 STRESS PERIOD TIME 2.63000E+06  43833.      730.56      30.440     8.33397E-02
         TOTAL TIME 9.73959E+07 1.62326E+06  27054.      1127.3      3.0863    
1
1
                            STRESS PERIOD NO.   39, LENGTH =   2630000.    
                            -----------------------------------------------

                              NUMBER OF TIME STEPS =    30

                               MULTIPLIER FOR DELT =     1.000

                            INITIAL TIME STEP SIZE =   87666.66    

 REUSING NON-PARAMETER GHB CELLS FROM LAST STRESS PERIOD

      2 GHB CELLS

 REUSING STREAM SEGMENT DATA FROM LAST STRESS PERIOD



            AREAL INFILTRATION RATE
 READING ON UNIT   19 WITH FORMAT: (FREE)              

            1           2           3           4           5           6           7           8           9          10
 ........................................................................................................................
   1   1.0000E-10  2.0000E-10   0.000       0.000       0.000       0.000       0.000       0.000       0.000       0.000    
   2   2.0000E-10  1.0000E-10  2.0000E-10   0.000       0.000      8.0000E-10  8.0000E-10  5.0000E-10   0.000       0.000    
   3    0.000      5.0000E-10  1.0000E-10  1.0000E-10  8.0000E-10  8.0000E-10  5.0000E-10  5.0000E-10   0.000       0.000    
   4   8.0000E-10  5.0000E-10  1.0000E-10  1.0000E-10  1.0000E-10  1.0000E-10  1.0000E-10  1.0000E-10  2.0000E-10   0.000    
   5   8.0000E-10  5.0000E-10  1.0000E-10  1.0000E-10  1.0000E-10  1.0000E-10  1.0000E-10  1.0000E-10  1.0000E-10  1.0000E-10
   6   8.0000E-10  5.0000E-10  5.0000E-10  2.0000E-10  2.0000E-10  1.0000E-10  1.0000E-10  1.0000E-10  1.0000E-10  5.0000E-10
   7   8.0000E-10  5.0000E-10  5.0000E-10  2.0000E-10  2.0000E-10  1.0000E-10  1.0000E-10  2.0000E-10  2.0000E-10   0.000    
   8    0.000      5.0000E-10  5.0000E-10  2.0000E-10  2.0000E-10  1.0000E-10  1.0000E-10  2.0000E-10  5.0000E-10   0.000    
   9    0.000      5.0000E-10  5.0000E-10  2.0000E-10  2.0000E-10  1.0000E-10  1.0000E-10  2.0000E-10  5.0000E-10   0.000    
  10    0.000      5.0000E-10  5.0000E-10  2.0000E-10  2.0000E-10  1.0000E-10  1.0000E-10  2.0000E-10  5.0000E-10  8.0000E-10
  11    0.000      1.0000E-10  1.0000E-10  1.0000E-10  1.0000E-10  1.0000E-10  1.0000E-10  2.0000E-10  5.0000E-10   0.000    
  12   1.0000E-10  1.0000E-10  1.0000E-10  1.0000E-10  1.0000E-10  1.0000E-10  1.0000E-10  1.0000E-10  2.0000E-10   0.000    
  13   1.0000E-10  1.0000E-10  2.0000E-10  2.0000E-10  2.0000E-10  2.0000E-10  2.0000E-10  1.0000E-10  1.0000E-10   0.000    
  14    0.000      2.0000E-10  5.0000E-10  5.0000E-10  5.0000E-10  5.0000E-10  5.0000E-10  2.0000E-10  1.0000E-10   0.000    
  15    0.000       0.000      8.0000E-10  8.0000E-10  8.0000E-10  8.0000E-10   0.000       0.000       0.000       0.000    

                  ET RATE =  5.000000E-10

 USING ET EXTINCTION DEPTH FROM PREVIOUS STRESS PERIOD. CURRENT PERIOD IS:      39

 USING EXTINCTION WATER CONTENT FROM PREVIOUS STRESS PERIOD. CURRENT PERIOD IS:      39

 USING AIR ENTRY PRESSURE FROM PREVIOUS STRESS PERIOD. CURRENT PERIOD IS:      39

 USING ROOT PRESSURE HEAD FROM PREVIOUS STRESS PERIOD. CURRENT PERIOD IS:      39

 USING ROOT ACTIVITY FROM PREVIOUS STRESS PERIOD. CURRENT PERIOD IS:      39

 PROCESSING AG STRESS PERIOD DATA

 READING AG STRESS PERIOD DATA

 READING IRRIGATION SEGMENT

 READING IRRIGATION WELL

 READING SUPPLEMENTAL WELL

 NO IRRPOND OR REUSING IRRPOND DATA FROM LAST STRESS PERIOD

 END PROCESSING AG STRESS PERIOD DATA OPTIONS
 
 SOLVING FOR HEAD 
                                                   Max.-Head-Change                         Max.-Flux-Residual
  Residual-Control   Outer-Iter.   Inner-Iter.     Column Row Layer    Maximum-Head-Change  Column Row Layer    Maximum-Flux-Residual          L2-NORM 
          0                 1           2             3    7     1       0.1095167745E-01       4    7    1         0.4593727167E+00      0.1527942126E+01
          0                 2           2             4    7     1       0.1319592655E-02       4    7    1         0.6958181518E-01      0.1890982847E+00
          0                 3           2             4    7     1       0.1976618795E-03       4    7    1         0.1036616984E-01      0.2311126012E-01
          0                 4           1             4    7     1       0.2958782266E-04       4    7    1         0.1555992763E-02      0.3231727858E-02

    ------------------------------------------------
       NWT REQUIRED            4 OUTER ITERATIONS 
       AND A TOTAL OF          7 INNER ITERATIONS.
    ------------------------------------------------

 NO OUTPUT CONTROL FOR STRESS PERIOD   39   TIME STEP    1
 
 SOLVING FOR HEAD 
                                                   Max.-Head-Change                         Max.-Flux-Residual
  Residual-Control   Outer-Iter.   Inner-Iter.     Column Row Layer    Maximum-Head-Change  Column Row Layer    Maximum-Flux-Residual          L2-NORM 
          0                 1           2             3    7     1       0.1089488354E-01       4    7    1         0.4559592752E+00      0.1519111618E+01
          0                 2           2             4    7     1       0.1309834052E-02       4    7    1         0.6906732547E-01      0.1879179727E+00
          0                 3           2             4    7     1       0.1962026201E-03       4    7    1         0.1028952109E-01      0.2295232391E-01
          0                 4           1             4    7     1       0.2936973434E-04       4    7    1         0.1544514849E-02      0.3208634163E-02

    ------------------------------------------------
       NWT REQUIRED            4 OUTER ITERATIONS 
       AND A TOTAL OF          7 INNER ITERATIONS.
    ------------------------------------------------

 NO OUTPUT CONTROL FOR STRESS PERIOD   39   TIME STEP    2
 
 SOLVING FOR HEAD 
                                                   Max.-Head-Change                         Max.-Flux-Residual
  Residual-Control   Outer-Iter.   Inner-Iter.     Column Row Layer    Maximum-Head-Change  Column Row Layer    Maximum-Flux-Residual          L2-NORM 
          0                 1           2             3    7     1       0.1083857304E-01       4    7    1         0.4525914999E+00      0.1509530566E+01
          0                 2           2             4    7     1       0.1300205765E-02       4    7    1         0.6855969712E-01      0.1866888114E+00
          0                 3           2             4    7     1       0.1947628677E-03       4    7    1         0.1021389661E-01      0.2279297384E-01
          0                 4           1             4    7     1       0.2915456718E-04       4    7    1         0.1533190470E-02      0.3185869620E-02

    ------------------------------------------------
       NWT REQUIRED            4 OUTER ITERATIONS 
       AND A TOTAL OF          7 INNER ITERATIONS.
    ------------------------------------------------

 NO OUTPUT CONTROL FOR STRESS PERIOD   39   TIME STEP    3
 
 SOLVING FOR HEAD 
                                                   Max.-Head-Change                         Max.-Flux-Residual
  Residual-Control   Outer-Iter.   Inner-Iter.     Column Row Layer    Maximum-Head-Change  Column Row Layer    Maximum-Flux-Residual          L2-NORM 
          0                 1           2             3    7     1       0.1078249717E-01       4    7    1         0.4492540788E+00      0.1500571454E+01
          0                 2           2             4    7     1       0.1290666590E-02       4    7    1         0.6805671273E-01      0.1855122958E+00
          0                 3           2             4    7     1       0.1933366519E-03       4    7    1         0.1013897728E-01      0.2263706701E-01
          0                 4           1             4    7     1       0.2894145169E-04       4    7    1         0.1521973157E-02      0.3163379240E-02

    ------------------------------------------------
       NWT REQUIRED            4 OUTER ITERATIONS 
       AND A TOTAL OF          7 INNER ITERATIONS.
    ------------------------------------------------

 NO OUTPUT CONTROL FOR STRESS PERIOD   39   TIME STEP    4
 
 SOLVING FOR HEAD 
                                                   Max.-Head-Change                         Max.-Flux-Residual
  Residual-Control   Outer-Iter.   Inner-Iter.     Column Row Layer    Maximum-Head-Change  Column Row Layer    Maximum-Flux-Residual          L2-NORM 
          0                 1           2             3    7     1       0.1072641465E-01       4    7    1         0.4459542776E+00      0.1492062864E+01
          0                 2           2             4    7     1       0.1281234582E-02       4    7    1         0.6755936048E-01      0.1843757112E+00
          0                 3           2             4    7     1       0.1919264705E-03       4    7    1         0.1006490097E-01      0.2248414413E-01
          0                 4           1             4    7     1       0.2873073388E-04       4    7    1         0.1510881945E-02      0.3141161818E-02

    ------------------------------------------------
       NWT REQUIRED            4 OUTER ITERATIONS 
       AND A TOTAL OF          7 INNER ITERATIONS.
    ------------------------------------------------

 NO OUTPUT CONTROL FOR STRESS PERIOD   39   TIME STEP    5
 
 SOLVING FOR HEAD 
                                                   Max.-Head-Change                         Max.-Flux-Residual
  Residual-Control   Outer-Iter.   Inner-Iter.     Column Row Layer    Maximum-Head-Change  Column Row Layer    Maximum-Flux-Residual          L2-NORM 
          0                 1           2             3    7     1       0.1067105678E-01       4    7    1         0.4426841367E+00      0.1483664106E+01
          0                 2           2             4    7     1       0.1271889715E-02       4    7    1         0.6706656848E-01      0.1832526770E+00
          0                 3           2             4    7     1       0.1905294932E-03       4    7    1         0.9991512674E-02      0.2233286083E-01
          0                 4           1             4    7     1       0.2852201259E-04       4    7    1         0.1499895139E-02      0.3119173365E-02

    ------------------------------------------------
       NWT REQUIRED            4 OUTER ITERATIONS 
       AND A TOTAL OF          7 INNER ITERATIONS.
    ------------------------------------------------

 NO OUTPUT CONTROL FOR STRESS PERIOD   39   TIME STEP    6
 
 SOLVING FOR HEAD 
                                                   Max.-Head-Change                         Max.-Flux-Residual
  Residual-Control   Outer-Iter.   Inner-Iter.     Column Row Layer    Maximum-Head-Change  Column Row Layer    Maximum-Flux-Residual          L2-NORM 
          0                 1           2             3    7     1       0.1061568648E-01       4    7    1         0.4394583092E+00      0.1475359413E+01
          0                 2           2             4    7     1       0.1262667914E-02       4    7    1         0.6658030249E-01      0.1821422548E+00
          0                 3           2             4    7     1       0.1891506685E-03       4    7    1         0.9919086670E-02      0.2218328212E-01
          0                 4           1             4    7     1       0.2831597049E-04       4    7    1         0.1489050301E-02      0.3097430365E-02

    ------------------------------------------------
       NWT REQUIRED            4 OUTER ITERATIONS 
       AND A TOTAL OF          7 INNER ITERATIONS.
    ------------------------------------------------

 NO OUTPUT CONTROL FOR STRESS PERIOD   39   TIME STEP    7
 
 SOLVING FOR HEAD 
                                                   Max.-Head-Change                         Max.-Flux-Residual
  Residual-Control   Outer-Iter.   Inner-Iter.     Column Row Layer    Maximum-Head-Change  Column Row Layer    Maximum-Flux-Residual          L2-NORM 
          0                 1           2             3    7     1       0.1056055221E-01       4    7    1         0.4362608692E+00      0.1467150351E+01
          0                 2           2             4    7     1       0.1253528940E-02       4    7    1         0.6609836335E-01      0.1810440874E+00
          0                 3           2             4    7     1       0.1877843784E-03       4    7    1         0.9847315044E-02      0.2203526505E-01
          0                 4           1             4    7     1       0.2811182173E-04       4    7    1         0.1478304488E-02      0.3075908035E-02

    ------------------------------------------------
       NWT REQUIRED            4 OUTER ITERATIONS 
       AND A TOTAL OF          7 INNER ITERATIONS.
    ------------------------------------------------

 NO OUTPUT CONTROL FOR STRESS PERIOD   39   TIME STEP    8
 
 SOLVING FOR HEAD 
                                                   Max.-Head-Change                         Max.-Flux-Residual
  Residual-Control   Outer-Iter.   Inner-Iter.     Column Row Layer    Maximum-Head-Change  Column Row Layer    Maximum-Flux-Residual          L2-NORM 
          0                 1           2             3    7     1       0.1050589468E-01       4    7    1         0.4330990024E+00      0.1459044421E+01
          0                 2           2             4    7     1       0.1244491583E-02       4    7    1         0.6562177872E-01      0.1799591967E+00
          0                 3           2             4    7     1       0.1864332825E-03       4    7    1         0.9776341737E-02      0.2188896379E-01
          0                 4           1             4    7     1       0.2790994322E-04       4    7    1         0.1467678167E-02      0.3054649863E-02

    ------------------------------------------------
       NWT REQUIRED            4 OUTER ITERATIONS 
       AND A TOTAL OF          7 INNER ITERATIONS.
    ------------------------------------------------

 NO OUTPUT CONTROL FOR STRESS PERIOD   39   TIME STEP    9
 
 SOLVING FOR HEAD 
                                                   Max.-Head-Change                         Max.-Flux-Residual
  Residual-Control   Outer-Iter.   Inner-Iter.     Column Row Layer    Maximum-Head-Change  Column Row Layer    Maximum-Flux-Residual          L2-NORM 
          0                 1           2             3    7     1       0.1045146603E-01       4    7    1         0.4299722039E+00      0.1451024784E+01
          0                 2           2             4    7     1       0.1235554359E-02       4    7    1         0.6515046247E-01      0.1788858486E+00
          0                 3           2             4    7     1       0.1850971658E-03       4    7    1         0.9706155755E-02      0.2174417366E-01
          0                 4           1             4    7     1       0.2771030321E-04       4    7    1         0.1457169634E-02      0.3033568496E-02

    ------------------------------------------------
       NWT REQUIRED            4 OUTER ITERATIONS 
       AND A TOTAL OF          7 INNER ITERATIONS.
    ------------------------------------------------

 NO OUTPUT CONTROL FOR STRESS PERIOD   39   TIME STEP   10
 
 SOLVING FOR HEAD 
                                                   Max.-Head-Change                         Max.-Flux-Residual
  Residual-Control   Outer-Iter.   Inner-Iter.     Column Row Layer    Maximum-Head-Change  Column Row Layer    Maximum-Flux-Residual          L2-NORM 
          0                 1           2             3    7     1       0.1039726768E-01       4    7    1         0.4268799406E+00      0.1443108624E+01
          0                 2           2             4    7     1       0.1226714675E-02       4    7    1         0.6468429643E-01      0.1778256277E+00
          0                 3           2             4    7     1       0.1837755651E-03       4    7    1         0.9636734859E-02      0.2160105989E-01
          0                 4           1             4    7     1       0.2751282479E-04       4    7    1         0.1446775082E-02      0.3012744647E-02

    ------------------------------------------------
       NWT REQUIRED            4 OUTER ITERATIONS 
       AND A TOTAL OF          7 INNER ITERATIONS.
    ------------------------------------------------

 NO OUTPUT CONTROL FOR STRESS PERIOD   39   TIME STEP   11
 
 SOLVING FOR HEAD 
                                                   Max.-Head-Change                         Max.-Flux-Residual
  Residual-Control   Outer-Iter.   Inner-Iter.     Column Row Layer    Maximum-Head-Change  Column Row Layer    Maximum-Flux-Residual          L2-NORM 
          0                 1           2             3    7     1       0.1034329781E-01       4    7    1         0.4238141900E+00      0.1435276621E+01
          0                 2           2             4    7     1       0.1217953277E-02       4    7    1         0.6422220445E-01      0.1767764931E+00
          0                 3           2             4    7     1       0.1824658776E-03       4    7    1         0.9567934002E-02      0.2145927914E-01
          0                 4           1             4    7     1       0.2731715354E-04       4    7    1         0.1436474825E-02      0.2992110852E-02

    ------------------------------------------------
       NWT REQUIRED            4 OUTER ITERATIONS 
       AND A TOTAL OF          7 INNER ITERATIONS.
    ------------------------------------------------

 NO OUTPUT CONTROL FOR STRESS PERIOD   39   TIME STEP   12
 
 SOLVING FOR HEAD 
                                                   Max.-Head-Change                         Max.-Flux-Residual
  Residual-Control   Outer-Iter.   Inner-Iter.     Column Row Layer    Maximum-Head-Change  Column Row Layer    Maximum-Flux-Residual          L2-NORM 
          0                 1           2             3    7     1       0.1028955917E-01       4    7    1         0.4207896192E+00      0.1427538253E+01
          0                 2           2             4    7     1       0.1209306029E-02       4    7    1         0.6376617879E-01      0.1757395627E+00
          0                 3           2             4    7     1       0.1811729989E-03       4    7    1         0.9500024604E-02      0.2131933210E-01
          0                 4           1             4    7     1       0.2712395914E-04       4    7    1         0.1426305934E-02      0.2971741077E-02

    ------------------------------------------------
       NWT REQUIRED            4 OUTER ITERATIONS 
       AND A TOTAL OF          7 INNER ITERATIONS.
    ------------------------------------------------

 NO OUTPUT CONTROL FOR STRESS PERIOD   39   TIME STEP   13
 
 SOLVING FOR HEAD 
                                                   Max.-Head-Change                         Max.-Flux-Residual
  Residual-Control   Outer-Iter.   Inner-Iter.     Column Row Layer    Maximum-Head-Change  Column Row Layer    Maximum-Flux-Residual          L2-NORM 
          0                 1           2             3    7     1       0.1023629196E-01       4    7    1         0.4177903860E+00      0.1419884226E+01
          0                 2           2             4    7     1       0.1200733821E-02       4    7    1         0.6331406335E-01      0.1747137729E+00
          0                 3           2             4    7     1       0.1798915482E-03       4    7    1         0.9432709245E-02      0.2118073601E-01
          0                 4           1             4    7     1       0.2693250076E-04       4    7    1         0.1416227593E-02      0.2951563488E-02

    ------------------------------------------------
       NWT REQUIRED            4 OUTER ITERATIONS 
       AND A TOTAL OF          7 INNER ITERATIONS.
    ------------------------------------------------

 NO OUTPUT CONTROL FOR STRESS PERIOD   39   TIME STEP   14
 
 SOLVING FOR HEAD 
                                                   Max.-Head-Change                         Max.-Flux-Residual
  Residual-Control   Outer-Iter.   Inner-Iter.     Column Row Layer    Maximum-Head-Change  Column Row Layer    Maximum-Flux-Residual          L2-NORM 
          0                 1           2             3    7     1       0.1018324895E-01       4    7    1         0.4148239135E+00      0.1412319641E+01
          0                 2           2             4    7     1       0.1192254915E-02       4    7    1         0.6286686053E-01      0.1736998984E+00
          0                 3           2             4    7     1       0.1786240442E-03       4    7    1         0.9366127104E-02      0.2104372940E-01
          0                 4           1             4    7     1       0.2674312606E-04       4    7    1         0.1406258880E-02      0.2931615560E-02

    ------------------------------------------------
       NWT REQUIRED            4 OUTER ITERATIONS 
       AND A TOTAL OF          7 INNER ITERATIONS.
    ------------------------------------------------

 NO OUTPUT CONTROL FOR STRESS PERIOD   39   TIME STEP   15
 
 SOLVING FOR HEAD 
                                                   Max.-Head-Change                         Max.-Flux-Residual
  Residual-Control   Outer-Iter.   Inner-Iter.     Column Row Layer    Maximum-Head-Change  Column Row Layer    Maximum-Flux-Residual          L2-NORM 
          0                 1           2             3    7     1       0.1013043105E-01       4    7    1         0.4118969711E+00      0.1404836349E+01
          0                 2           2             4    7     1       0.1183885478E-02       4    7    1         0.6242547906E-01      0.1726964647E+00
          0                 3           2             4    7     1       0.1773726350E-03       4    7    1         0.9300399469E-02      0.2090804641E-01
          0                 4           1             4    7     1       0.2655611928E-04       4    7    1         0.1396415938E-02      0.2911855726E-02

    ------------------------------------------------
       NWT REQUIRED            4 OUTER ITERATIONS 
       AND A TOTAL OF          7 INNER ITERATIONS.
    ------------------------------------------------

 NO OUTPUT CONTROL FOR STRESS PERIOD   39   TIME STEP   16
 
 SOLVING FOR HEAD 
                                                   Max.-Head-Change                         Max.-Flux-Residual
  Residual-Control   Outer-Iter.   Inner-Iter.     Column Row Layer    Maximum-Head-Change  Column Row Layer    Maximum-Flux-Residual          L2-NORM 
          0                 1           2             3    7     1       0.1007783771E-01       4    7    1         0.4089937508E+00      0.1397444352E+01
          0                 2           2             4    7     1       0.1175587318E-02       4    7    1         0.6198778429E-01      0.1717051818E+00
          0                 3           2             4    7     1       0.1761321815E-03       4    7    1         0.9235238645E-02      0.2077399050E-01
          0                 4           1             4    7     1       0.2637079000E-04       4    7    1         0.1386660027E-02      0.2892330477E-02

    ------------------------------------------------
       NWT REQUIRED            4 OUTER ITERATIONS 
       AND A TOTAL OF          7 INNER ITERATIONS.
    ------------------------------------------------

 NO OUTPUT CONTROL FOR STRESS PERIOD   39   TIME STEP   17
 
 SOLVING FOR HEAD 
                                                   Max.-Head-Change                         Max.-Flux-Residual
  Residual-Control   Outer-Iter.   Inner-Iter.     Column Row Layer    Maximum-Head-Change  Column Row Layer    Maximum-Flux-Residual          L2-NORM 
          0                 1           2             3    7     1       0.1002571090E-01       4    7    1         0.4061218143E+00      0.1390128923E+01
          0                 2           2             4    7     1       0.1167378091E-02       4    7    1         0.6155478562E-01      0.1707241349E+00
          0                 3           2             4    7     1       0.1749049866E-03       4    7    1         0.9170775559E-02      0.2064127973E-01
          0                 4           1             4    7     1       0.2618743660E-04       4    7    1         0.1377008282E-02      0.2872995961E-02

    ------------------------------------------------
       NWT REQUIRED            4 OUTER ITERATIONS 
       AND A TOTAL OF          7 INNER ITERATIONS.
    ------------------------------------------------

 NO OUTPUT CONTROL FOR STRESS PERIOD   39   TIME STEP   18
 
 SOLVING FOR HEAD 
                                                   Max.-Head-Change                         Max.-Flux-Residual
  Residual-Control   Outer-Iter.   Inner-Iter.     Column Row Layer    Maximum-Head-Change  Column Row Layer    Maximum-Flux-Residual          L2-NORM 
          0                 1           2             3    7     1       0.9973560882E-02       4    7    1         0.4032806505E+00      0.1382901035E+01
          0                 2           2             4    7     1       0.1159256304E-02       4    7    1         0.6112638532E-01      0.1697546173E+00
          0                 3           2             4    7     1       0.1736908618E-03       4    7    1         0.9107000035E-02      0.2051014098E-01
          0                 4           1             4    7     1       0.2600603631E-04       4    7    1         0.1367459280E-02      0.2853891564E-02

    ------------------------------------------------
       NWT REQUIRED            4 OUTER ITERATIONS 
       AND A TOTAL OF          7 INNER ITERATIONS.
    ------------------------------------------------

 NO OUTPUT CONTROL FOR STRESS PERIOD   39   TIME STEP   19
 
 SOLVING FOR HEAD 
                                                   Max.-Head-Change                         Max.-Flux-Residual
  Residual-Control   Outer-Iter.   Inner-Iter.     Column Row Layer    Maximum-Head-Change  Column Row Layer    Maximum-Flux-Residual          L2-NORM 
          0                 1           2             3    7     1       0.9921877591E-02       4    7    1         0.4004696862E+00      0.1375749471E+01
          0                 2           2             4    7     1       0.1151221105E-02       4    7    1         0.6070254547E-01      0.1687950662E+00
          0                 3           2             4    7     1       0.1724896949E-03       4    7    1         0.9043905048E-02      0.2038027259E-01
          0                 4           1             4    7     1       0.2582657313E-04       4    7    1         0.1358012247E-02      0.2834965373E-02

    ------------------------------------------------
       NWT REQUIRED            4 OUTER ITERATIONS 
       AND A TOTAL OF          7 INNER ITERATIONS.
    ------------------------------------------------

 NO OUTPUT CONTROL FOR STRESS PERIOD   39   TIME STEP   20
 
 SOLVING FOR HEAD 
                                                   Max.-Head-Change                         Max.-Flux-Residual
  Residual-Control   Outer-Iter.   Inner-Iter.     Column Row Layer    Maximum-Head-Change  Column Row Layer    Maximum-Flux-Residual          L2-NORM 
          0                 1           2             3    7     1       0.9870412849E-02       4    7    1         0.3976885596E+00      0.1368670541E+01
          0                 2           2             4    7     1       0.1143269992E-02       4    7    1         0.6028314945E-01      0.1678454511E+00
          0                 3           2             4    7     1       0.1713010279E-03       4    7    1         0.8981469241E-02      0.2025176018E-01
          0                 4           1             4    7     1       0.2564896865E-04       4    7    1         0.1348663266E-02      0.2816238761E-02

    ------------------------------------------------
       NWT REQUIRED            4 OUTER ITERATIONS 
       AND A TOTAL OF          7 INNER ITERATIONS.
    ------------------------------------------------

 NO OUTPUT CONTROL FOR STRESS PERIOD   39   TIME STEP   21
 
 SOLVING FOR HEAD 
                                                   Max.-Head-Change                         Max.-Flux-Residual
  Residual-Control   Outer-Iter.   Inner-Iter.     Column Row Layer    Maximum-Head-Change  Column Row Layer    Maximum-Flux-Residual          L2-NORM 
          0                 1           2             3    7     1       0.9819407473E-02       4    7    1         0.3949293135E+00      0.1361675712E+01
          0                 2           2             4    7     1       0.1135383995E-02       4    7    1         0.5986714239E-01      0.1669066770E+00
          0                 3           2             4    7     1       0.1701223044E-03       4    7    1         0.8919549344E-02      0.2012464512E-01
          0                 4           1             4    7     1       0.2547287822E-04       4    7    1         0.1339393123E-02      0.2797708130E-02

    ------------------------------------------------
       NWT REQUIRED            4 OUTER ITERATIONS 
       AND A TOTAL OF          7 INNER ITERATIONS.
    ------------------------------------------------

 NO OUTPUT CONTROL FOR STRESS PERIOD   39   TIME STEP   22
 
 SOLVING FOR HEAD 
                                                   Max.-Head-Change                         Max.-Flux-Residual
  Residual-Control   Outer-Iter.   Inner-Iter.     Column Row Layer    Maximum-Head-Change  Column Row Layer    Maximum-Flux-Residual          L2-NORM 
          0                 1           2             3    7     1       0.9768374537E-02       4    7    1         0.3922067278E+00      0.1354755557E+01
          0                 2           2             4    7     1       0.1127599937E-02       4    7    1         0.5945653907E-01      0.1659777973E+00
          0                 3           2             4    7     1       0.1689586183E-03       4    7    1         0.8858426696E-02      0.1999883879E-01
          0                 4           1             4    7     1       0.2529900653E-04       4    7    1         0.1330240605E-02      0.2779367912E-02

    ------------------------------------------------
       NWT REQUIRED            4 OUTER ITERATIONS 
       AND A TOTAL OF          7 INNER ITERATIONS.
    ------------------------------------------------

 NO OUTPUT CONTROL FOR STRESS PERIOD   39   TIME STEP   23
 
 SOLVING FOR HEAD 
                                                   Max.-Head-Change                         Max.-Flux-Residual
  Residual-Control   Outer-Iter.   Inner-Iter.     Column Row Layer    Maximum-Head-Change  Column Row Layer    Maximum-Flux-Residual          L2-NORM 
          0                 1           2             3    7     1       0.9717802867E-02       4    7    1         0.3895124319E+00      0.1347916090E+01
          0                 2           2             4    7     1       0.1119897444E-02       4    7    1         0.5905022244E-01      0.1650597710E+00
          0                 3           2             4    7     1       0.1678071904E-03       4    7    1         0.8797946063E-02      0.1987449430E-01
          0                 4           1             4    7     1       0.2512697553E-04       4    7    1         0.1321184682E-02      0.2761237015E-02

    ------------------------------------------------
       NWT REQUIRED            4 OUTER ITERATIONS 
       AND A TOTAL OF          7 INNER ITERATIONS.
    ------------------------------------------------

 NO OUTPUT CONTROL FOR STRESS PERIOD   39   TIME STEP   24
 
 SOLVING FOR HEAD 
                                                   Max.-Head-Change                         Max.-Flux-Residual
  Residual-Control   Outer-Iter.   Inner-Iter.     Column Row Layer    Maximum-Head-Change  Column Row Layer    Maximum-Flux-Residual          L2-NORM 
          0                 1           2             3    7     1       0.9667444444E-02       4    7    1         0.3868461623E+00      0.1341146981E+01
          0                 2           2             4    7     1       0.1112275948E-02       4    7    1         0.5864815057E-01      0.1641514760E+00
          0                 3           2             4    7     1       0.1666679561E-03       4    7    1         0.8738103959E-02      0.1975150493E-01
          0                 4           1             4    7     1       0.2495677759E-04       4    7    1         0.1312224890E-02      0.2743305172E-02

    ------------------------------------------------
       NWT REQUIRED            4 OUTER ITERATIONS 
       AND A TOTAL OF          7 INNER ITERATIONS.
    ------------------------------------------------

 NO OUTPUT CONTROL FOR STRESS PERIOD   39   TIME STEP   25
 
 SOLVING FOR HEAD 
                                                   Max.-Head-Change                         Max.-Flux-Residual
  Residual-Control   Outer-Iter.   Inner-Iter.     Column Row Layer    Maximum-Head-Change  Column Row Layer    Maximum-Flux-Residual          L2-NORM 
          0                 1           2             3    7     1       0.9617299175E-02       4    7    1         0.3842076624E+00      0.1334447507E+01
          0                 2           2             4    7     1       0.1104731041E-02       4    7    1         0.5825015785E-01      0.1632520259E+00
          0                 3           2             4    7     1       0.1655399688E-03       4    7    1         0.8678859143E-02      0.1962962558E-01
          0                 4           1             4    7     1       0.2478823351E-04       4    7    1         0.1303352936E-02      0.2725531194E-02

    ------------------------------------------------
       NWT REQUIRED            4 OUTER ITERATIONS 
       AND A TOTAL OF          7 INNER ITERATIONS.
    ------------------------------------------------

 NO OUTPUT CONTROL FOR STRESS PERIOD   39   TIME STEP   26
 
 SOLVING FOR HEAD 
                                                   Max.-Head-Change                         Max.-Flux-Residual
  Residual-Control   Outer-Iter.   Inner-Iter.     Column Row Layer    Maximum-Head-Change  Column Row Layer    Maximum-Flux-Residual          L2-NORM 
          0                 1           2             3    7     1       0.9567610346E-02       4    7    1         0.3815960476E+00      0.1327829024E+01
          0                 2           2             4    7     1       0.1097266032E-02       4    7    1         0.5785632239E-01      0.1623636949E+00
          0                 3           2             4    7     1       0.1644241699E-03       4    7    1         0.8620247379E-02      0.1950927920E-01
          0                 4           1             4    7     1       0.2462154238E-04       4    7    1         0.1294577559E-02      0.2707981933E-02

    ------------------------------------------------
       NWT REQUIRED            4 OUTER ITERATIONS 
       AND A TOTAL OF          7 INNER ITERATIONS.
    ------------------------------------------------

 NO OUTPUT CONTROL FOR STRESS PERIOD   39   TIME STEP   27
 
 SOLVING FOR HEAD 
                                                   Max.-Head-Change                         Max.-Flux-Residual
  Residual-Control   Outer-Iter.   Inner-Iter.     Column Row Layer    Maximum-Head-Change  Column Row Layer    Maximum-Flux-Residual          L2-NORM 
          0                 1           2             3    7     1       0.9518128671E-02       4    7    1         0.3790114803E+00      0.1321275161E+01
          0                 2           2             4    7     1       0.1089876837E-02       4    7    1         0.5746650231E-01      0.1614838808E+00
          0                 3           2             4    7     1       0.1633196000E-03       4    7    1         0.8562229063E-02      0.1939006179E-01
          0                 4           1             4    7     1       0.2445651511E-04       4    7    1         0.1285890172E-02      0.2690588478E-02

    ------------------------------------------------
       NWT REQUIRED            4 OUTER ITERATIONS 
       AND A TOTAL OF          7 INNER ITERATIONS.
    ------------------------------------------------

 NO OUTPUT CONTROL FOR STRESS PERIOD   39   TIME STEP   28
 
 SOLVING FOR HEAD 
                                                   Max.-Head-Change                         Max.-Flux-Residual
  Residual-Control   Outer-Iter.   Inner-Iter.     Column Row Layer    Maximum-Head-Change  Column Row Layer    Maximum-Flux-Residual          L2-NORM 
          0                 1           2             3    7     1       0.9468855740E-02       4    7    1         0.3764533088E+00      0.1314790724E+01
          0                 2           2             4    7     1       0.1082561912E-02       4    7    1         0.5708061112E-01      0.1606129479E+00
          0                 3           2             4    7     1       0.1622260517E-03       4    7    1         0.8504792632E-02      0.1927196414E-01
          0                 4           1             4    7     1       0.2429312394E-04       4    7    1         0.1277289203E-02      0.2673355420E-02

    ------------------------------------------------
       NWT REQUIRED            4 OUTER ITERATIONS 
       AND A TOTAL OF          7 INNER ITERATIONS.
    ------------------------------------------------

 NO OUTPUT CONTROL FOR STRESS PERIOD   39   TIME STEP   29
 
 SOLVING FOR HEAD 
                                                   Max.-Head-Change                         Max.-Flux-Residual
  Residual-Control   Outer-Iter.   Inner-Iter.     Column Row Layer    Maximum-Head-Change  Column Row Layer    Maximum-Flux-Residual          L2-NORM 
          0                 1           2             3    7     1       0.9419792341E-02       4    7    1         0.3739209474E+00      0.1352898892E+01
          0                 2           2             4    7     1       0.1075360902E-02       4    7    1         0.5669994760E-01      0.1633194698E+00
          0                 3           2             4    7     1       0.1611530564E-03       4    7    1         0.8448328382E-02      0.1929593729E-01
          0                 4           1             4    7     1       0.2413330198E-04       4    7    1         0.1268860706E-02      0.2659056276E-02

    ------------------------------------------------
       NWT REQUIRED            4 OUTER ITERATIONS 
       AND A TOTAL OF          7 INNER ITERATIONS.
    ------------------------------------------------

 NO OUTPUT CONTROL FOR STRESS PERIOD   39   TIME STEP   30



 STREAM LISTING     PERIOD     39   STEP       30

 LAYER ROW COL. STREAM  RCH.  FLOW INTO     FLOW TO   FLOW OUT OF   OVRLND.     DIRECT     STREAM       STREAM     STREAM     STREAM   STREAMBED  STREAMBED
                SEG.NO.  NO.  STRM. RCH.    AQUIFER    STRM. RCH.    RUNOFF     PRECIP       ET          HEAD       DEPTH      WIDTH   CONDCTNC.   GRADIENT

   1    1    1     1     1    1.6375E+01  1.9673E-01   1.6178E+01  0.000E+00  0.000E+00  0.000E+00  1.09408E+03  1.036E+00  1.083E+01  4.874E-02  1.345E+00
   1    2    2     1     2    1.6178E+01  3.0333E-01   1.5875E+01  0.000E+00  0.000E+00  0.000E+00  1.08909E+03  1.032E+00  1.075E+01  7.524E-02  1.344E+00
   1    3    3     1     3    1.5875E+01  2.5739E-01   1.5618E+01  0.000E+00  0.000E+00  0.000E+00  1.08345E+03  1.026E+00  1.065E+01  6.392E-02  1.342E+00
   1    3    4     1     4    1.5618E+01  2.3595E-01   1.5382E+01  0.000E+00  0.000E+00  0.000E+00  1.07843E+03  1.022E+00  1.057E+01  5.867E-02  1.341E+00
   1    4    5     2     1    1.3382E+01  2.9830E-01   1.3084E+01  0.000E+00  0.000E+00  0.000E+00  1.07276E+03  8.244E-01  1.200E+01  7.800E-02  1.275E+00
   1    5    6     2     2    1.3084E+01  2.2887E-01   1.2855E+01  0.000E+00  0.000E+00  0.000E+00  1.06732E+03  8.145E-01  1.200E+01  6.000E-02  1.271E+00
   1    6    6     2     3    1.2855E+01  2.2835E-01   1.2626E+01  0.000E+00  0.000E+00  0.000E+00  1.06260E+03  8.059E-01  1.200E+01  6.000E-02  1.269E+00
   1    7    6     2     4    1.2626E+01  2.2783E-01   1.2398E+01  0.000E+00  0.000E+00  0.000E+00  1.05787E+03  7.972E-01  1.200E+01  6.000E-02  1.266E+00
   1    8    6     2     5    1.2398E+01  2.2731E-01   1.2171E+01  0.000E+00  0.000E+00  0.000E+00  1.05315E+03  7.884E-01  1.200E+01  6.000E-02  1.263E+00
   1    3    5     3     1    2.0000E+00  2.8252E-01   1.7175E+00  0.000E+00  0.000E+00  0.000E+00  1.07555E+03  1.909E+00  9.636E+00  7.227E-02  1.955E+00
   1    3    6     3     2    1.7175E+00  2.4905E-01   1.4684E+00  0.000E+00  0.000E+00  0.000E+00  1.07264E+03  1.727E+00  8.909E+00  6.682E-02  1.864E+00
   1    3    7     3     3    1.4684E+00  1.9718E-01   1.2712E+00  0.000E+00  0.000E+00  0.000E+00  1.06987E+03  1.555E+00  8.218E+00  5.547E-02  1.777E+00
   1    4    8     3     4    1.2712E+00  2.2567E-01   1.0456E+00  0.000E+00  0.000E+00  0.000E+00  1.06682E+03  1.364E+00  7.455E+00  6.709E-02  1.682E+00
   1    5    8     3     5    1.0456E+00  1.5790E-01   8.8768E-01  0.000E+00  0.000E+00  0.000E+00  1.06362E+03  1.164E+00  6.655E+00  4.991E-02  1.582E+00
   1    6    8     3     6    8.8768E-01  5.5980E-02   8.3170E-01  0.000E+00  0.000E+00  0.000E+00  1.06158E+03  1.036E+00  6.145E+00  1.844E-02  1.518E+00
   1    5   10     4     1    1.0000E+01  9.0919E-02   9.9091E+00  0.000E+00  0.000E+00  0.000E+00  1.07836E+03  6.368E-01  1.000E+01  2.500E-02  1.212E+00
   1    5    9     4     2    9.9091E+00  1.8158E-01   9.7275E+00  0.000E+00  0.000E+00  0.000E+00  1.07154E+03  6.315E-01  1.000E+01  5.000E-02  1.211E+00
   1    6    8     4     3    9.7275E+00  1.2689E-01   9.6006E+00  0.000E+00  0.000E+00  0.000E+00  1.06381E+03  6.256E-01  1.000E+01  3.500E-02  1.209E+00
   1    6    8     5     1    1.0432E+01  2.2686E-01   1.0205E+01  0.000E+00  0.000E+00  0.000E+00  1.05868E+03  6.790E-01  1.542E+01  6.166E-02  1.226E+00
   1    7    7     5     2    1.0205E+01  2.7894E-01   9.9265E+00  0.000E+00  0.000E+00  0.000E+00  1.05417E+03  6.732E-01  1.519E+01  7.594E-02  1.224E+00
   1    8    7     5     3    9.9265E+00  1.9221E-01   9.7343E+00  0.000E+00  0.000E+00  0.000E+00  1.04992E+03  6.676E-01  1.497E+01  5.241E-02  1.223E+00
   1    8    6     5     4    9.7343E+00  1.3577E-01   9.5985E+00  0.000E+00  0.000E+00  0.000E+00  1.04691E+03  6.637E-01  1.482E+01  3.706E-02  1.221E+00
   1    9    6     6     1    2.1770E+01  2.4720E-01   2.1522E+01  0.000E+00  0.000E+00  0.000E+00  1.04385E+03  1.120E+00  1.200E+01  6.000E-02  1.373E+00
   1   10    7     6     2    2.1522E+01  2.4674E-01   2.1276E+01  0.000E+00  0.000E+00  0.000E+00  1.03929E+03  1.112E+00  1.200E+01  6.000E-02  1.371E+00
   1   11    7     6     3    2.1276E+01  2.4627E-01   2.1029E+01  0.000E+00  0.000E+00  0.000E+00  1.03474E+03  1.105E+00  1.200E+01  6.000E-02  1.368E+00
   1   12    7     6     4    2.1029E+01  2.4581E-01   2.0784E+01  0.000E+00  0.000E+00  0.000E+00  1.03019E+03  1.097E+00  1.200E+01  6.000E-02  1.366E+00
   1   13    7     6     5    2.0784E+01  1.2908E-02   2.0771E+01  0.000E+00  0.000E+00  0.000E+00  1.02700E+03  1.093E+00  1.200E+01  2.400E-02  1.793E-01
   1   14    9     7     1    1.5000E+02  1.3991E+00   1.4860E+02  0.000E+00  0.000E+00  0.000E+00  1.03987E+03  2.288E+00  5.529E+01  5.593E-01  8.339E-01
   1   13    8     7     2    1.4860E+02  2.0308E+00   1.4657E+02  0.000E+00  0.000E+00  0.000E+00  1.03478E+03  2.278E+00  5.525E+01  6.147E-01  1.101E+00
   1   13    7     7     3    1.4657E+02  1.7998E+00   1.4477E+02  0.000E+00  0.000E+00  0.000E+00  1.02969E+03  2.268E+00  5.521E+01  5.583E-01  1.075E+00
   1   13    6     8     1    1.6554E+02  1.2186E+00   1.6432E+02  0.000E+00  0.000E+00  0.000E+00  1.02479E+03  2.919E+00  4.232E+01  4.313E-01  9.418E-01
   1   13    5     8     2    1.6432E+02  4.5047E-01   1.6387E+02  0.000E+00  0.000E+00  0.000E+00  1.01854E+03  2.913E+00  4.224E+01  4.305E-01  3.488E-01
   1   13    4     8     3    1.6387E+02 -1.4031E+00   1.6527E+02  0.000E+00  0.000E+00  0.000E+00  1.01229E+03  2.917E+00  4.229E+01  4.309E+00 -1.085E-01
   1   13    3     8     4    1.6527E+02 -3.0733E+00   1.6835E+02  0.000E+00  0.000E+00  0.000E+00  1.00606E+03  2.931E+00  4.250E+01  4.331E+00 -2.365E-01
   1   13    2     8     5    1.6835E+02 -2.3120E+00   1.7066E+02  0.000E+00  0.000E+00  0.000E+00  9.99824E+02  2.949E+00  4.276E+01  4.357E+00 -1.769E-01
   1   13    1     8     6    1.7066E+02 -1.8626E+00   1.7252E+02  0.000E+00  0.000E+00  0.000E+00  9.94838E+02  2.963E+00  4.296E+01  2.626E+00 -2.364E-01
   1    8    6     9     1    0.0000E+00  0.0000E+00   0.0000E+00  0.000E+00  0.000E+00  0.000E+00  1.07875E+03  0.000E+00  4.000E+00  0.000E+00  1.000E+00
   1    8    5     9     2    0.0000E+00  0.0000E+00   0.0000E+00  0.000E+00  0.000E+00  0.000E+00  1.07825E+03  0.000E+00  4.000E+00  0.000E+00  1.000E+00





UNSATURATED ZONE PACKAGE VOLUMETRIC BUDGET FOR  TIME STEP    30 STRESS PERIOD   39
  ------------------------------------------------------------------------------



     CUMULATIVE VOLUMES      L**3       RATES FOR THIS TIME STEP      L**3/T
     ------------------                 ------------------------

           IN:                                      IN:
           ---                                      ---
        INFILTRATION =  1758585675.7262          INFILTRATION =           0.8475

          OUT:                                     OUT:
          ----                                     ----
              UZF ET =  1287010649.1250                UZF ET =           0.7500
        UZF RECHARGE =   122522240.5184          UZF RECHARGE =           0.8258

            IN - OUT =   349052786.0828              IN - OUT =          -0.7283

          STORAGE:                                 STORAGE:
          --------                                 --------
      STORAGE CHANGE =   349053037.1244        STORAGE CHANGE =          -0.7283

 PERCENT DISCREPANCY IS DIFFERENCE BETWEEN IN-OUT MINUS CHANGE IN STORAGE
 DIVIDED BY THE AVERAGE OF IN AND OUT TIMES 100

 PERCENT DISCREPANCY =          -0.00     PERCENT DISCREPANCY =           0.00






1
  VOLUMETRIC BUDGET FOR AGRICULTURAL FIELDS AT  END OF TIME STEP   30, STRESS PERIOD  39
  ------------------------------------------------------------------------------

     CUMULATIVE VOLUMES      L**3       RATES FOR THIS TIME STEP      L**3/T
     ------------------                 ------------------------

           IN:                                      IN:
           ---                                      ---
               AG WELLS  =  1086541952.0000                 AG WELLS  =           0.0000
      DIVERSION SEGMENTS =   587377792.0000        DIVERSION SEGMENTS =           0.0000
       IRRIGATION PONDS  =           0.0000         IRRIGATION PONDS  =           0.0000
           GW IRRIGATION =           0.0000             GW IRRIGATION =           0.0000
           SW IRRIGATION =           0.0000             SW IRRIGATION =           0.0000
        SYSTEM LOSSES GW =           0.0000          SYSTEM LOSSES GW =           0.0000
        SYSTEM LOSSES SW =           0.0000          SYSTEM LOSSES SW =           0.0000

                TOTAL IN =  1673919744.0000                  TOTAL IN =           0.0000

          OUT:                                     OUT:
          ----                                     ----
               AG WELLS  =           0.0000                 AG WELLS  =           0.0000
      DIVERSION SEGMENTS =           0.0000        DIVERSION SEGMENTS =           0.0000
       IRRIGATION PONDS  =           0.0000         IRRIGATION PONDS  =           0.0000
           GW IRRIGATION =  1086541952.0000             GW IRRIGATION =           0.0000
           SW IRRIGATION =   587388864.0000             SW IRRIGATION =           0.0000
        SYSTEM LOSSES GW =           0.0000          SYSTEM LOSSES GW =           0.0000
        SYSTEM LOSSES SW =           0.0000          SYSTEM LOSSES SW =           0.0000

               TOTAL OUT =  1673930752.0000                 TOTAL OUT =           0.0000

                IN - OUT =      -11008.0000                  IN - OUT =           0.0000

     PERCENT DISCREPANCY =          -0.00         PERCENT DISCREPANCY =           0.00



1
  VOLUMETRIC BUDGET FOR ENTIRE MODEL AT END OF TIME STEP   30, STRESS PERIOD  39
  ------------------------------------------------------------------------------

     CUMULATIVE VOLUMES      L**3       RATES FOR THIS TIME STEP      L**3/T
     ------------------                 ------------------------

           IN:                                      IN:
           ---                                      ---
             STORAGE     =  1659295744.0000               STORAGE     =           2.7952
       CONSTANT HEAD     =           0.0000         CONSTANT HEAD     =           0.0000
     HEAD DEP BOUNDS     =    28870596.0000       HEAD DEP BOUNDS     =           0.2901
      STREAM LEAKAGE     =  1194334848.0000        STREAM LEAKAGE     =          12.5033
        UZF RECHARGE     =   122522312.0000          UZF RECHARGE     =           0.8258
               GW ET     =           0.0000                 GW ET     =           0.0000
     SURFACE LEAKAGE     =           0.0000       SURFACE LEAKAGE     =           0.0000
           AG WELLS      =           0.0000             AG WELLS      =           0.0000

                TOTAL IN =  3005023488.0000                  TOTAL IN =          16.4144

          OUT:                                     OUT:
          ----                                     ----
             STORAGE     =   903852928.0000               STORAGE     =           7.4757
       CONSTANT HEAD     =           0.0000         CONSTANT HEAD     =           0.0000
     HEAD DEP BOUNDS     =    28776762.0000       HEAD DEP BOUNDS     =           0.2868
      STREAM LEAKAGE     =   985834240.0000        STREAM LEAKAGE     =           8.6509
        UZF RECHARGE     =           0.0000          UZF RECHARGE     =           0.0000
               GW ET     =           0.0000                 GW ET     =           0.0000
     SURFACE LEAKAGE     =           0.0000       SURFACE LEAKAGE     =           0.0000
           AG WELLS      =  1086541952.0000             AG WELLS      =           0.0000

               TOTAL OUT =  3005005824.0000                 TOTAL OUT =          16.4134

                IN - OUT =       17664.0000                  IN - OUT =       9.7275E-04

     PERCENT DISCREPANCY =           0.00         PERCENT DISCREPANCY =           0.01






         TIME SUMMARY AT END OF TIME STEP   30 IN STRESS PERIOD   39
                    SECONDS     MINUTES      HOURS       DAYS        YEARS
                    -----------------------------------------------------------
   TIME STEP LENGTH  87667.      1461.1      24.352      1.0147     2.77799E-03
 STRESS PERIOD TIME 2.63000E+06  43833.      730.56      30.440     8.33397E-02
         TOTAL TIME 1.00026E+08 1.66710E+06  27785.      1157.7      3.1696    
1
1
                            STRESS PERIOD NO.   40, LENGTH =   2630000.    
                            -----------------------------------------------

                              NUMBER OF TIME STEPS =    30

                               MULTIPLIER FOR DELT =     1.000

                            INITIAL TIME STEP SIZE =   87666.66    

 REUSING NON-PARAMETER GHB CELLS FROM LAST STRESS PERIOD

      2 GHB CELLS

 REUSING STREAM SEGMENT DATA FROM LAST STRESS PERIOD



            AREAL INFILTRATION RATE
 READING ON UNIT   19 WITH FORMAT: (FREE)              

            1           2           3           4           5           6           7           8           9          10
 ........................................................................................................................
   1   1.0000E-10  2.0000E-10   0.000       0.000       0.000       0.000       0.000       0.000       0.000       0.000    
   2   2.0000E-10  1.0000E-10  2.0000E-10   0.000       0.000      8.0000E-10  8.0000E-10  5.0000E-10   0.000       0.000    
   3    0.000      5.0000E-10  1.0000E-10  1.0000E-10  8.0000E-10  8.0000E-10  5.0000E-10  5.0000E-10   0.000       0.000    
   4   8.0000E-10  5.0000E-10  1.0000E-10  1.0000E-10  1.0000E-10  1.0000E-10  1.0000E-10  1.0000E-10  2.0000E-10   0.000    
   5   8.0000E-10  5.0000E-10  1.0000E-10  1.0000E-10  1.0000E-10  1.0000E-10  1.0000E-10  1.0000E-10  1.0000E-10  1.0000E-10
   6   8.0000E-10  5.0000E-10  5.0000E-10  2.0000E-10  2.0000E-10  1.0000E-10  1.0000E-10  1.0000E-10  1.0000E-10  5.0000E-10
   7   8.0000E-10  5.0000E-10  5.0000E-10  2.0000E-10  2.0000E-10  1.0000E-10  1.0000E-10  2.0000E-10  2.0000E-10   0.000    
   8    0.000      5.0000E-10  5.0000E-10  2.0000E-10  2.0000E-10  1.0000E-10  1.0000E-10  2.0000E-10  5.0000E-10   0.000    
   9    0.000      5.0000E-10  5.0000E-10  2.0000E-10  2.0000E-10  1.0000E-10  1.0000E-10  2.0000E-10  5.0000E-10   0.000    
  10    0.000      5.0000E-10  5.0000E-10  2.0000E-10  2.0000E-10  1.0000E-10  1.0000E-10  2.0000E-10  5.0000E-10  8.0000E-10
  11    0.000      1.0000E-10  1.0000E-10  1.0000E-10  1.0000E-10  1.0000E-10  1.0000E-10  2.0000E-10  5.0000E-10   0.000    
  12   1.0000E-10  1.0000E-10  1.0000E-10  1.0000E-10  1.0000E-10  1.0000E-10  1.0000E-10  1.0000E-10  2.0000E-10   0.000    
  13   1.0000E-10  1.0000E-10  2.0000E-10  2.0000E-10  2.0000E-10  2.0000E-10  2.0000E-10  1.0000E-10  1.0000E-10   0.000    
  14    0.000      2.0000E-10  5.0000E-10  5.0000E-10  5.0000E-10  5.0000E-10  5.0000E-10  2.0000E-10  1.0000E-10   0.000    
  15    0.000       0.000      8.0000E-10  8.0000E-10  8.0000E-10  8.0000E-10   0.000       0.000       0.000       0.000    

                  ET RATE =  5.000000E-10

 USING ET EXTINCTION DEPTH FROM PREVIOUS STRESS PERIOD. CURRENT PERIOD IS:      40

 USING EXTINCTION WATER CONTENT FROM PREVIOUS STRESS PERIOD. CURRENT PERIOD IS:      40

 USING AIR ENTRY PRESSURE FROM PREVIOUS STRESS PERIOD. CURRENT PERIOD IS:      40

 USING ROOT PRESSURE HEAD FROM PREVIOUS STRESS PERIOD. CURRENT PERIOD IS:      40

 USING ROOT ACTIVITY FROM PREVIOUS STRESS PERIOD. CURRENT PERIOD IS:      40

 PROCESSING AG STRESS PERIOD DATA

 READING AG STRESS PERIOD DATA

 READING IRRIGATION SEGMENT

 READING IRRIGATION WELL

 READING SUPPLEMENTAL WELL

 NO IRRPOND OR REUSING IRRPOND DATA FROM LAST STRESS PERIOD

 END PROCESSING AG STRESS PERIOD DATA OPTIONS
 
 SOLVING FOR HEAD 
                                                   Max.-Head-Change                         Max.-Flux-Residual
  Residual-Control   Outer-Iter.   Inner-Iter.     Column Row Layer    Maximum-Head-Change  Column Row Layer    Maximum-Flux-Residual          L2-NORM 
          0                 1           2             4   13     1       0.1156846418E-01       4   13    1         0.6648499221E+00      0.1763507553E+01
          0                 2           2             4   13     1      -0.1113272243E-02       4   13    1        -0.6578470036E-01      0.1968185084E+00
          0                 3           2             4    7     1       0.1601075882E-03       4    7    1         0.8393153506E-02      0.2060312428E-01
          0                 4           1             4    7     1       0.2397831843E-04       4    7    1         0.1260664416E-02      0.2660899900E-02

    ------------------------------------------------
       NWT REQUIRED            4 OUTER ITERATIONS 
       AND A TOTAL OF          7 INNER ITERATIONS.
    ------------------------------------------------

 NO OUTPUT CONTROL FOR STRESS PERIOD   40   TIME STEP    1
 
 SOLVING FOR HEAD 
                                                   Max.-Head-Change                         Max.-Flux-Residual
  Residual-Control   Outer-Iter.   Inner-Iter.     Column Row Layer    Maximum-Head-Change  Column Row Layer    Maximum-Flux-Residual          L2-NORM 
          0                 1           2             4   13     1       0.1046894209E-01       4   13    1         0.6013408812E+00      0.1703888099E+01
          0                 2           2             4    7     1       0.1061369336E-02       4   13    1        -0.5949935351E-01      0.1915584571E+00
          0                 3           2             4    7     1       0.1590779584E-03       4    7    1         0.8338832445E-02      0.2031369660E-01
          0                 4           1             4    7     1       0.2382560562E-04       4    7    1         0.1252590580E-02      0.2644731609E-02

    ------------------------------------------------
       NWT REQUIRED            4 OUTER ITERATIONS 
       AND A TOTAL OF          7 INNER ITERATIONS.
    ------------------------------------------------

 NO OUTPUT CONTROL FOR STRESS PERIOD   40   TIME STEP    2
 
 SOLVING FOR HEAD 
                                                   Max.-Head-Change                         Max.-Flux-Residual
  Residual-Control   Outer-Iter.   Inner-Iter.     Column Row Layer    Maximum-Head-Change  Column Row Layer    Maximum-Flux-Residual          L2-NORM 
          0                 1           2             4   13     1       0.9479096983E-02       4   13    1         0.5441846007E+00      0.1651397106E+01
          0                 2           2             4    7     1       0.1054554644E-02       4    7    1         0.5559702372E-01      0.1869242819E+00
          0                 3           2             4    7     1       0.1580664675E-03       4    7    1         0.8285485948E-02      0.2005506721E-01
          0                 4           1             4    7     1       0.2367550736E-04       4    7    1         0.1244657284E-02      0.2629515364E-02

    ------------------------------------------------
       NWT REQUIRED            4 OUTER ITERATIONS 
       AND A TOTAL OF          7 INNER ITERATIONS.
    ------------------------------------------------

 NO OUTPUT CONTROL FOR STRESS PERIOD   40   TIME STEP    3
 
 SOLVING FOR HEAD 
                                                   Max.-Head-Change                         Max.-Flux-Residual
  Residual-Control   Outer-Iter.   Inner-Iter.     Column Row Layer    Maximum-Head-Change  Column Row Layer    Maximum-Flux-Residual          L2-NORM 
          0                 1           2             3    7     1       0.9226633613E-02       4   13    1         0.4927319798E+00      0.1605160425E+01
          0                 2           2             4    7     1       0.1047821969E-02       4    7    1         0.5524027889E-01      0.1828339079E+00
          0                 3           2             4    7     1       0.1570668699E-03       4    7    1         0.8232776266E-02      0.1982009015E-01
          0                 4           1             4    7     1       0.2352713161E-04       4    7    1         0.1236816340E-02      0.2614143154E-02

    ------------------------------------------------
       NWT REQUIRED            4 OUTER ITERATIONS 
       AND A TOTAL OF          7 INNER ITERATIONS.
    ------------------------------------------------

 NO OUTPUT CONTROL FOR STRESS PERIOD   40   TIME STEP    4
 
 SOLVING FOR HEAD 
                                                   Max.-Head-Change                         Max.-Flux-Residual
  Residual-Control   Outer-Iter.   Inner-Iter.     Column Row Layer    Maximum-Head-Change  Column Row Layer    Maximum-Flux-Residual          L2-NORM 
          0                 1           2             3    7     1       0.9179128662E-02       4   13    1         0.4464016489E+00      0.1564401603E+01
          0                 2           2             4    7     1       0.1041206046E-02       4    7    1         0.5488983107E-01      0.1792162062E+00
          0                 3           2             4    7     1       0.1560840615E-03       4    7    1         0.8180969274E-02      0.1960671677E-01
          0                 4           1             4    7     1       0.2338117156E-04       4    7    1         0.1229105398E-02      0.2599312356E-02

    ------------------------------------------------
       NWT REQUIRED            4 OUTER ITERATIONS 
       AND A TOTAL OF          7 INNER ITERATIONS.
    ------------------------------------------------

 NO OUTPUT CONTROL FOR STRESS PERIOD   40   TIME STEP    5
 
 SOLVING FOR HEAD 
                                                   Max.-Head-Change                         Max.-Flux-Residual
  Residual-Control   Outer-Iter.   Inner-Iter.     Column Row Layer    Maximum-Head-Change  Column Row Layer    Maximum-Flux-Residual          L2-NORM 
          0                 1           2             3    7     1       0.9131838776E-02       4   13    1         0.4046692536E+00      0.1528415764E+01
          0                 2           2             4    7     1       0.1034663987E-02       4    7    1         0.5454333649E-01      0.1760074140E+00
          0                 3           2             4    7     1       0.1551119928E-03       4    7    1         0.8129736395E-02      0.1941089705E-01
          0                 4           1             4    7     1       0.2323677182E-04       4    7    1         0.1221477955E-02      0.2584571004E-02

    ------------------------------------------------
       NWT REQUIRED            4 OUTER ITERATIONS 
       AND A TOTAL OF          7 INNER ITERATIONS.
    ------------------------------------------------

 NO OUTPUT CONTROL FOR STRESS PERIOD   40   TIME STEP    6
 
 SOLVING FOR HEAD 
                                                   Max.-Head-Change                         Max.-Flux-Residual
  Residual-Control   Outer-Iter.   Inner-Iter.     Column Row Layer    Maximum-Head-Change  Column Row Layer    Maximum-Flux-Residual          L2-NORM 
          0                 1           2             3    7     1       0.9084767025E-02       2   13    1         0.3708668851E+00      0.1496585948E+01
          0                 2           2             4    7     1       0.1028231115E-02       4    7    1         0.5420271777E-01      0.1731467582E+00
          0                 3           2             4    7     1       0.1541556552E-03       4    7    1         0.8079348856E-02      0.1923076379E-01
          0                 4           1             4    7     1       0.2309463797E-04       4    7    1         0.1213972362E-02      0.2570139809E-02

    ------------------------------------------------
       NWT REQUIRED            4 OUTER ITERATIONS 
       AND A TOTAL OF          7 INNER ITERATIONS.
    ------------------------------------------------

 NO OUTPUT CONTROL FOR STRESS PERIOD   40   TIME STEP    7
 
 SOLVING FOR HEAD 
                                                   Max.-Head-Change                         Max.-Flux-Residual
  Residual-Control   Outer-Iter.   Inner-Iter.     Column Row Layer    Maximum-Head-Change  Column Row Layer    Maximum-Flux-Residual          L2-NORM 
          0                 1           2             3    7     1       0.9038158453E-02       4    7    1         0.3550111346E+00      0.1468357962E+01
          0                 2           2             4    7     1       0.1021884768E-02       4    7    1         0.5386673098E-01      0.1705894442E+00
          0                 3           2             4    7     1       0.1532119251E-03       4    7    1         0.8029633880E-02      0.1906139966E-01
          0                 4           1             4    7     1       0.2295434118E-04       4    7    1         0.1206564917E-02      0.2555443119E-02

    ------------------------------------------------
       NWT REQUIRED            4 OUTER ITERATIONS 
       AND A TOTAL OF          7 INNER ITERATIONS.
    ------------------------------------------------

 NO OUTPUT CONTROL FOR STRESS PERIOD   40   TIME STEP    8
 
 SOLVING FOR HEAD 
                                                   Max.-Head-Change                         Max.-Flux-Residual
  Residual-Control   Outer-Iter.   Inner-Iter.     Column Row Layer    Maximum-Head-Change  Column Row Layer    Maximum-Flux-Residual          L2-NORM 
          0                 1           2             3    7     1       0.8991764931E-02       4    7    1         0.3528029993E+00      0.1443260608E+01
          0                 2           2             4    7     1       0.1015619556E-02       4    7    1         0.5353512613E-01      0.1682953904E+00
          0                 3           2             4    7     1       0.1522798222E-03       4    7    1         0.7980545547E-02      0.1890727373E-01
          0                 4           1             4    7     1       0.2281571138E-04       4    7    1         0.1199247351E-02      0.2541870572E-02

    ------------------------------------------------
       NWT REQUIRED            4 OUTER ITERATIONS 
       AND A TOTAL OF          7 INNER ITERATIONS.
    ------------------------------------------------

 NO OUTPUT CONTROL FOR STRESS PERIOD   40   TIME STEP    9
 
 SOLVING FOR HEAD 
                                                   Max.-Head-Change                         Max.-Flux-Residual
  Residual-Control   Outer-Iter.   Inner-Iter.     Column Row Layer    Maximum-Head-Change  Column Row Layer    Maximum-Flux-Residual          L2-NORM 
          0                 1           2             3    7     1       0.8945588929E-02       4    7    1         0.3506312116E+00      0.1420875584E+01
          0                 2           2             4    7     1       0.1009453997E-02       4    7    1         0.5320884331E-01      0.1662254900E+00
          0                 3           2             4    7     1       0.1513622589E-03       4    7    1         0.7932232837E-02      0.1876106796E-01
          0                 4           1             4    7     1       0.2267920240E-04       4    7    1         0.1192043016E-02      0.2528093902E-02

    ------------------------------------------------
       NWT REQUIRED            4 OUTER ITERATIONS 
       AND A TOTAL OF          7 INNER ITERATIONS.
    ------------------------------------------------

 NO OUTPUT CONTROL FOR STRESS PERIOD   40   TIME STEP   10
 
 SOLVING FOR HEAD 
                                                   Max.-Head-Change                         Max.-Flux-Residual
  Residual-Control   Outer-Iter.   Inner-Iter.     Column Row Layer    Maximum-Head-Change  Column Row Layer    Maximum-Flux-Residual          L2-NORM 
          0                 1           2             3    7     1       0.8899630672E-02       4    7    1         0.3484798910E+00      0.1400834202E+01
          0                 2           2             4    7     1       0.1003345163E-02       4    7    1         0.5288558217E-01      0.1643487674E+00
          0                 3           2             4    7     1       0.1504530164E-03       4    7    1         0.7884362490E-02      0.1862297815E-01
          0                 4           1             4    7     1       0.2254391246E-04       4    7    1         0.1184903606E-02      0.2514432275E-02

    ------------------------------------------------
       NWT REQUIRED            4 OUTER ITERATIONS 
       AND A TOTAL OF          7 INNER ITERATIONS.
    ------------------------------------------------

 NO OUTPUT CONTROL FOR STRESS PERIOD   40   TIME STEP   11
 
 SOLVING FOR HEAD 
                                                   Max.-Head-Change                         Max.-Flux-Residual
  Residual-Control   Outer-Iter.   Inner-Iter.     Column Row Layer    Maximum-Head-Change  Column Row Layer    Maximum-Flux-Residual          L2-NORM 
          0                 1           2             3    7     1       0.8854134667E-02       4    7    1         0.3463630794E+00      0.1382832444E+01
          0                 2           2             4    7     1       0.9973287813E-03       4    7    1         0.5256730802E-01      0.1626401080E+00
          0                 3           2             4    7     1       0.1495570789E-03       4    7    1         0.7837206950E-02      0.1849196014E-01
          0                 4           1             4    7     1       0.2241053874E-04       4    7    1         0.1177867235E-02      0.2500794026E-02

    ------------------------------------------------
       NWT REQUIRED            4 OUTER ITERATIONS 
       AND A TOTAL OF          7 INNER ITERATIONS.
    ------------------------------------------------

 NO OUTPUT CONTROL FOR STRESS PERIOD   40   TIME STEP   12
 
 SOLVING FOR HEAD 
                                                   Max.-Head-Change                         Max.-Flux-Residual
  Residual-Control   Outer-Iter.   Inner-Iter.     Column Row Layer    Maximum-Head-Change  Column Row Layer    Maximum-Flux-Residual          L2-NORM 
          0                 1           2             3    7     1       0.8808852269E-02       4    7    1         0.3442719318E+00      0.1366577230E+01
          0                 2           2             4    7     1       0.9913826204E-03       4    7    1         0.5225278925E-01      0.1610745021E+00
          0                 3           2             4    7     1       0.1486713708E-03       4    7    1         0.7790597509E-02      0.1836760055E-01
          0                 4           1             4    7     1       0.2227865432E-04       4    7    1         0.1170910463E-02      0.2487550207E-02

    ------------------------------------------------
       NWT REQUIRED            4 OUTER ITERATIONS 
       AND A TOTAL OF          7 INNER ITERATIONS.
    ------------------------------------------------

 NO OUTPUT CONTROL FOR STRESS PERIOD   40   TIME STEP   13
 
 SOLVING FOR HEAD 
                                                   Max.-Head-Change                         Max.-Flux-Residual
  Residual-Control   Outer-Iter.   Inner-Iter.     Column Row Layer    Maximum-Head-Change  Column Row Layer    Maximum-Flux-Residual          L2-NORM 
          0                 1           2             3    7     1       0.8764027233E-02       4    7    1         0.3422055484E+00      0.1351851231E+01
          0                 2           2             4    7     1       0.9855055447E-03       4    7    1         0.5194194930E-01      0.1596344835E+00
          0                 3           2             4    7     1       0.1477958243E-03       4    7    1         0.7744527082E-02      0.1824781268E-01
          0                 4           1             4    7     1       0.2214826355E-04       4    7    1         0.1164033102E-02      0.2474167086E-02

    ------------------------------------------------
       NWT REQUIRED            4 OUTER ITERATIONS 
       AND A TOTAL OF          7 INNER ITERATIONS.
    ------------------------------------------------

 NO OUTPUT CONTROL FOR STRESS PERIOD   40   TIME STEP   14
 
 SOLVING FOR HEAD 
                                                   Max.-Head-Change                         Max.-Flux-Residual
  Residual-Control   Outer-Iter.   Inner-Iter.     Column Row Layer    Maximum-Head-Change  Column Row Layer    Maximum-Flux-Residual          L2-NORM 
          0                 1           2             3    7     1       0.8719412733E-02       4    7    1         0.3401706345E+00      0.1338433065E+01
          0                 2           2             4    7     1       0.9797132260E-03       4    7    1         0.5163566360E-01      0.1583006804E+00
          0                 3           2             4    7     1       0.1469325324E-03       4    7    1         0.7699113586E-02      0.1813311176E-01
          0                 4           1             4    7     1       0.2201964707E-04       4    7    1         0.1157250849E-02      0.2461078729E-02

    ------------------------------------------------
       NWT REQUIRED            4 OUTER ITERATIONS 
       AND A TOTAL OF          7 INNER ITERATIONS.
    ------------------------------------------------

 NO OUTPUT CONTROL FOR STRESS PERIOD   40   TIME STEP   15
 
 SOLVING FOR HEAD 
                                                   Max.-Head-Change                         Max.-Flux-Residual
  Residual-Control   Outer-Iter.   Inner-Iter.     Column Row Layer    Maximum-Head-Change  Column Row Layer    Maximum-Flux-Residual          L2-NORM 
          0                 1           2             3    7     1       0.8675008001E-02       4    7    1         0.3381585279E+00      0.1326149429E+01
          0                 2           2             4    7     1       0.9739839366E-03       4    7    1         0.5133273693E-01      0.1570598943E+00
          0                 3           2             4    7     1       0.1460784785E-03       4    7    1         0.7654191440E-02      0.1802249251E-01
          0                 4           1             4    7     1       0.2189238269E-04       4    7    1         0.1150540631E-02      0.2448067656E-02

    ------------------------------------------------
       NWT REQUIRED            4 OUTER ITERATIONS 
       AND A TOTAL OF          7 INNER ITERATIONS.
    ------------------------------------------------

 NO OUTPUT CONTROL FOR STRESS PERIOD   40   TIME STEP   16
 
 SOLVING FOR HEAD 
                                                   Max.-Head-Change                         Max.-Flux-Residual
  Residual-Control   Outer-Iter.   Inner-Iter.     Column Row Layer    Maximum-Head-Change  Column Row Layer    Maximum-Flux-Residual          L2-NORM 
          0                 1           2             3    7     1       0.8630815352E-02       4    7    1         0.3361685367E+00      0.1314857558E+01
          0                 2           2             4    7     1       0.9683163721E-03       4    7    1         0.5103308900E-01      0.1559002974E+00
          0                 3           2             4    7     1       0.1452335175E-03       4    7    1         0.7609751534E-02      0.1791522206E-01
          0                 4           1             4    7     1       0.2176645716E-04       4    7    1         0.1143901499E-02      0.2435062229E-02

    ------------------------------------------------
       NWT REQUIRED            4 OUTER ITERATIONS 
       AND A TOTAL OF          7 INNER ITERATIONS.
    ------------------------------------------------

 NO OUTPUT CONTROL FOR STRESS PERIOD   40   TIME STEP   17
 
 SOLVING FOR HEAD 
                                                   Max.-Head-Change                         Max.-Flux-Residual
  Residual-Control   Outer-Iter.   Inner-Iter.     Column Row Layer    Maximum-Head-Change  Column Row Layer    Maximum-Flux-Residual          L2-NORM 
          0                 1           2             3    7     1       0.8587074388E-02       4    7    1         0.3342000966E+00      0.1304423358E+01
          0                 2           2             4    7     1       0.9627075444E-03       4    7    1         0.5073659475E-01      0.1548108642E+00
          0                 3           2             4    7     1       0.1443970977E-03       4    7    1         0.7565767369E-02      0.1781140500E-01
          0                 4           1             4    7     1       0.2164177493E-04       4    7    1         0.1137328823E-02      0.2422313599E-02

    ------------------------------------------------
       NWT REQUIRED            4 OUTER ITERATIONS 
       AND A TOTAL OF          7 INNER ITERATIONS.
    ------------------------------------------------

 NO OUTPUT CONTROL FOR STRESS PERIOD   40   TIME STEP   18
 
 SOLVING FOR HEAD 
                                                   Max.-Head-Change                         Max.-Flux-Residual
  Residual-Control   Outer-Iter.   Inner-Iter.     Column Row Layer    Maximum-Head-Change  Column Row Layer    Maximum-Flux-Residual          L2-NORM 
          0                 1           2             3    7     1       0.8543540291E-02       4    7    1         0.3322597555E+00      0.1294731844E+01
          0                 2           2             4    7     1       0.9571760355E-03       4    7    1         0.5044422611E-01      0.1537823801E+00
          0                 3           2             4    7     1       0.1435719789E-03       4    7    1         0.7522385388E-02      0.1771034130E-01
          0                 4           1             4    7     1       0.2151874343E-04       4    7    1         0.1130844207E-02      0.2409593040E-02

    ------------------------------------------------
       NWT REQUIRED            4 OUTER ITERATIONS 
       AND A TOTAL OF          7 INNER ITERATIONS.
    ------------------------------------------------

 NO OUTPUT CONTROL FOR STRESS PERIOD   40   TIME STEP   19
 
 SOLVING FOR HEAD 
                                                   Max.-Head-Change                         Max.-Flux-Residual
  Residual-Control   Outer-Iter.   Inner-Iter.     Column Row Layer    Maximum-Head-Change  Column Row Layer    Maximum-Flux-Residual          L2-NORM 
          0                 1           2             3    7     1       0.8500452202E-02       4    7    1         0.3303319681E+00      0.1285693767E+01
          0                 2           2             4    7     1       0.9516808315E-03       4    7    1         0.5015377305E-01      0.1528077621E+00
          0                 3           2             4    7     1       0.1427523085E-03       4    7    1         0.7479288584E-02      0.1761172340E-01
          0                 4           1             4    7     1       0.2139652880E-04       4    7    1         0.1124402501E-02      0.2397020024E-02

    ------------------------------------------------
       NWT REQUIRED            4 OUTER ITERATIONS 
       AND A TOTAL OF          7 INNER ITERATIONS.
    ------------------------------------------------

 NO OUTPUT CONTROL FOR STRESS PERIOD   40   TIME STEP   20
 
 SOLVING FOR HEAD 
                                                   Max.-Head-Change                         Max.-Flux-Residual
  Residual-Control   Outer-Iter.   Inner-Iter.     Column Row Layer    Maximum-Head-Change  Column Row Layer    Maximum-Flux-Residual          L2-NORM 
          0                 1           2             3    7     1       0.8457564308E-02       4    7    1         0.3284386148E+00      0.1277221250E+01
          0                 2           2             4    7     1       0.9462787244E-03       4    7    1         0.4986831561E-01      0.1518798380E+00
          0                 3           2             4    7     1       0.1419461202E-03       4    7    1         0.7436914021E-02      0.1751536667E-01
          0                 4           1             4    7     1       0.2127626740E-04       4    7    1         0.1118065492E-02      0.2384563954E-02

    ------------------------------------------------
       NWT REQUIRED            4 OUTER ITERATIONS 
       AND A TOTAL OF          7 INNER ITERATIONS.
    ------------------------------------------------

 NO OUTPUT CONTROL FOR STRESS PERIOD   40   TIME STEP   21
 
 SOLVING FOR HEAD 
                                                   Max.-Head-Change                         Max.-Flux-Residual
  Residual-Control   Outer-Iter.   Inner-Iter.     Column Row Layer    Maximum-Head-Change  Column Row Layer    Maximum-Flux-Residual          L2-NORM 
          0                 1           2             3    7     1       0.8414875582E-02       4    7    1         0.3265563344E+00      0.1269244702E+01
          0                 2           2             4    7     1       0.9409082685E-03       4    7    1         0.4958452721E-01      0.1509929530E+00
          0                 3           2             4    7     1       0.1411446655E-03       4    7    1         0.7394788011E-02      0.1742098769E-01
          0                 4           1             4    7     1       0.2115671370E-04       4    7    1         0.1111765708E-02      0.2372148633E-02

    ------------------------------------------------
       NWT REQUIRED            4 OUTER ITERATIONS 
       AND A TOTAL OF          7 INNER ITERATIONS.
    ------------------------------------------------

 NO OUTPUT CONTROL FOR STRESS PERIOD   40   TIME STEP   22
 
 SOLVING FOR HEAD 
                                                   Max.-Head-Change                         Max.-Flux-Residual
  Residual-Control   Outer-Iter.   Inner-Iter.     Column Row Layer    Maximum-Head-Change  Column Row Layer    Maximum-Flux-Residual          L2-NORM 
          0                 1           2             3    7     1       0.8372629227E-02       4    7    1         0.3246996107E+00      0.1261706251E+01
          0                 2           2             4    7     1       0.9356084432E-03       4    7    1         0.4930451110E-01      0.1501426434E+00
          0                 3           2             4    7     1       0.1403535497E-03       4    7    1         0.7353211970E-02      0.1732843461E-01
          0                 4           1             4    7     1       0.2103867254E-04       4    7    1         0.1105546541E-02      0.2359861502E-02

    ------------------------------------------------
       NWT REQUIRED            4 OUTER ITERATIONS 
       AND A TOTAL OF          7 INNER ITERATIONS.
    ------------------------------------------------

 NO OUTPUT CONTROL FOR STRESS PERIOD   40   TIME STEP   23
 
 SOLVING FOR HEAD 
                                                   Max.-Head-Change                         Max.-Flux-Residual
  Residual-Control   Outer-Iter.   Inner-Iter.     Column Row Layer    Maximum-Head-Change  Column Row Layer    Maximum-Flux-Residual          L2-NORM 
          0                 1           2             3    7     1       0.8330577195E-02       4    7    1         0.3228603800E+00      0.1254549866E+01
          0                 2           2             4    7     1       0.9303576184E-03       4    7    1         0.4902709342E-01      0.1493248087E+00
          0                 3           2             4    7     1       0.1395696831E-03       4    7    1         0.7312019225E-02      0.1723792583E-01
          0                 4           1             4    7     1       0.2092170461E-04       4    7    1         0.1099384169E-02      0.2347776214E-02

    ------------------------------------------------
       NWT REQUIRED            4 OUTER ITERATIONS 
       AND A TOTAL OF          7 INNER ITERATIONS.
    ------------------------------------------------

 NO OUTPUT CONTROL FOR STRESS PERIOD   40   TIME STEP   24
 
 SOLVING FOR HEAD 
                                                   Max.-Head-Change                         Max.-Flux-Residual
  Residual-Control   Outer-Iter.   Inner-Iter.     Column Row Layer    Maximum-Head-Change  Column Row Layer    Maximum-Flux-Residual          L2-NORM 
          0                 1           2             3    7     1       0.8288717209E-02       4    7    1         0.3210382234E+00      0.1247732397E+01
          0                 2           2             4    7     1       0.9251543833E-03       4    7    1         0.4875220460E-01      0.1485356304E+00
          0                 3           2             4    7     1       0.1387928311E-03       4    7    1         0.7271198199E-02      0.1714846616E-01
          0                 4           1             4    7     1       0.2080577039E-04       4    7    1         0.1093276652E-02      0.2335567957E-02

    ------------------------------------------------
       NWT REQUIRED            4 OUTER ITERATIONS 
       AND A TOTAL OF          7 INNER ITERATIONS.
    ------------------------------------------------

 NO OUTPUT CONTROL FOR STRESS PERIOD   40   TIME STEP   25
 
 SOLVING FOR HEAD 
                                                   Max.-Head-Change                         Max.-Flux-Residual
  Residual-Control   Outer-Iter.   Inner-Iter.     Column Row Layer    Maximum-Head-Change  Column Row Layer    Maximum-Flux-Residual          L2-NORM 
          0                 1           2             3    7     1       0.8247294420E-02       4    7    1         0.3192400104E+00      0.1241222369E+01
          0                 2           2             4    7     1       0.9200172942E-03       4    7    1         0.4848084893E-01      0.1477727108E+00
          0                 3           2             4    7     1       0.1380256660E-03       4    7    1         0.7230892185E-02      0.1706071121E-01
          0                 4           1             4    7     1       0.2069125492E-04       4    7    1         0.1087244698E-02      0.2323575958E-02

    ------------------------------------------------
       NWT REQUIRED            4 OUTER ITERATIONS 
       AND A TOTAL OF          7 INNER ITERATIONS.
    ------------------------------------------------

 NO OUTPUT CONTROL FOR STRESS PERIOD   40   TIME STEP   26
 
 SOLVING FOR HEAD 
                                                   Max.-Head-Change                         Max.-Flux-Residual
  Residual-Control   Outer-Iter.   Inner-Iter.     Column Row Layer    Maximum-Head-Change  Column Row Layer    Maximum-Flux-Residual          L2-NORM 
          0                 1           2             3    7     1       0.8206057855E-02       4    7    1         0.3174577193E+00      0.1234978810E+01
          0                 2           2             4    7     1       0.9149257229E-03       4    7    1         0.4821189109E-01      0.1470326884E+00
          0                 3           2             4    7     1       0.1372653031E-03       4    7    1         0.7190943830E-02      0.1697421520E-01
          0                 4           1             4    7     1       0.2057775428E-04       4    7    1         0.1081266198E-02      0.2311679422E-02

    ------------------------------------------------
       NWT REQUIRED            4 OUTER ITERATIONS 
       AND A TOTAL OF          7 INNER ITERATIONS.
    ------------------------------------------------

 NO OUTPUT CONTROL FOR STRESS PERIOD   40   TIME STEP   27
 
 SOLVING FOR HEAD 
                                                   Max.-Head-Change                         Max.-Flux-Residual
  Residual-Control   Outer-Iter.   Inner-Iter.     Column Row Layer    Maximum-Head-Change  Column Row Layer    Maximum-Flux-Residual          L2-NORM 
          0                 1           2             3    7     1       0.8165009467E-02       4    7    1         0.3156911301E+00      0.1228973612E+01
          0                 2           2             4    7     1       0.9098783026E-03       4    7    1         0.4794527259E-01      0.1463138737E+00
          0                 3           2             4    7     1       0.1365114788E-03       4    7    1         0.7151341035E-02      0.1688900105E-01
          0                 4           1             4    7     1       0.2046522207E-04       4    7    1         0.1075338957E-02      0.2299868374E-02

    ------------------------------------------------
       NWT REQUIRED            4 OUTER ITERATIONS 
       AND A TOTAL OF          7 INNER ITERATIONS.
    ------------------------------------------------

 NO OUTPUT CONTROL FOR STRESS PERIOD   40   TIME STEP   28
 
 SOLVING FOR HEAD 
                                                   Max.-Head-Change                         Max.-Flux-Residual
  Residual-Control   Outer-Iter.   Inner-Iter.     Column Row Layer    Maximum-Head-Change  Column Row Layer    Maximum-Flux-Residual          L2-NORM 
          0                 1           2             3    7     1       0.8124390386E-02       4    7    1         0.3139472161E+00      0.1223181390E+01
          0                 2           2             4    7     1       0.9048920646E-03       4    7    1         0.4768194833E-01      0.1456135931E+00
          0                 3           2             4    7     1       0.1357665098E-03       4    7    1         0.7112211985E-02      0.1680499654E-01
          0                 4           1             4    7     1       0.2035397355E-04       4    7    1         0.1069480468E-02      0.2288172386E-02

    ------------------------------------------------
       NWT REQUIRED            4 OUTER ITERATIONS 
       AND A TOTAL OF          7 INNER ITERATIONS.
    ------------------------------------------------

 NO OUTPUT CONTROL FOR STRESS PERIOD   40   TIME STEP   29
 
 SOLVING FOR HEAD 
                                                   Max.-Head-Change                         Max.-Flux-Residual
  Residual-Control   Outer-Iter.   Inner-Iter.     Column Row Layer    Maximum-Head-Change  Column Row Layer    Maximum-Flux-Residual          L2-NORM 
          0                 1           2             3    7     1       0.8083951856E-02       4    7    1         0.3122177383E+00      0.1217588517E+01
          0                 2           2             4    7     1       0.8999483347E-03       4    7    1         0.4742084241E-01      0.1449310854E+00
          0                 3           2             4    7     1       0.1350279813E-03       4    7    1         0.7073419042E-02      0.1672200466E-01
          0                 4           1             4    7     1       0.2024369759E-04       4    7    1         0.1063672878E-02      0.2276542299E-02

    ------------------------------------------------
       NWT REQUIRED            4 OUTER ITERATIONS 
       AND A TOTAL OF          7 INNER ITERATIONS.
    ------------------------------------------------

 NO OUTPUT CONTROL FOR STRESS PERIOD   40   TIME STEP   30



 STREAM LISTING     PERIOD     40   STEP       30

 LAYER ROW COL. STREAM  RCH.  FLOW INTO     FLOW TO   FLOW OUT OF   OVRLND.     DIRECT     STREAM       STREAM     STREAM     STREAM   STREAMBED  STREAMBED
                SEG.NO.  NO.  STRM. RCH.    AQUIFER    STRM. RCH.    RUNOFF     PRECIP       ET          HEAD       DEPTH      WIDTH   CONDCTNC.   GRADIENT

   1    1    1     1     1    3.6749E+01  2.9261E-01   3.6456E+01  0.000E+00  0.000E+00  0.000E+00  1.09435E+03  1.306E+00  1.510E+01  6.795E-02  1.435E+00
   1    2    2     1     2    3.6456E+01  4.5309E-01   3.6003E+01  0.000E+00  0.000E+00  0.000E+00  1.08936E+03  1.303E+00  1.504E+01  1.053E-01  1.434E+00
   1    3    3     1     3    3.6003E+01  3.8635E-01   3.5617E+01  0.000E+00  0.000E+00  0.000E+00  1.08372E+03  1.300E+00  1.497E+01  8.985E-02  1.433E+00
   1    3    4     1     4    3.5617E+01  3.5571E-01   3.5261E+01  0.000E+00  0.000E+00  0.000E+00  1.07870E+03  1.297E+00  1.492E+01  8.278E-02  1.432E+00
   1    4    5     2     1    3.3261E+01  3.4544E-01   3.2916E+01  0.000E+00  0.000E+00  0.000E+00  1.07336E+03  1.429E+00  1.200E+01  7.800E-02  1.476E+00
   1    5    6     2     2    3.2916E+01  2.6525E-01   3.2650E+01  0.000E+00  0.000E+00  0.000E+00  1.06793E+03  1.421E+00  1.200E+01  6.000E-02  1.474E+00
   1    6    6     2     3    3.2650E+01  2.6483E-01   3.2386E+01  0.000E+00  0.000E+00  0.000E+00  1.06321E+03  1.414E+00  1.200E+01  6.000E-02  1.471E+00
   1    7    6     2     4    3.2386E+01  2.6442E-01   3.2121E+01  0.000E+00  0.000E+00  0.000E+00  1.05848E+03  1.407E+00  1.200E+01  6.000E-02  1.469E+00
   1    8    6     2     5    3.2121E+01  2.6400E-01   3.1857E+01  0.000E+00  0.000E+00  0.000E+00  1.05376E+03  1.400E+00  1.200E+01  6.000E-02  1.467E+00
   1    3    5     3     1    2.0000E+00  2.8252E-01   1.7175E+00  0.000E+00  0.000E+00  0.000E+00  1.07555E+03  1.909E+00  9.636E+00  7.227E-02  1.955E+00
   1    3    6     3     2    1.7175E+00  2.4905E-01   1.4684E+00  0.000E+00  0.000E+00  0.000E+00  1.07264E+03  1.727E+00  8.909E+00  6.682E-02  1.864E+00
   1    3    7     3     3    1.4684E+00  1.9718E-01   1.2712E+00  0.000E+00  0.000E+00  0.000E+00  1.06987E+03  1.555E+00  8.218E+00  5.547E-02  1.777E+00
   1    4    8     3     4    1.2712E+00  2.2567E-01   1.0456E+00  0.000E+00  0.000E+00  0.000E+00  1.06682E+03  1.364E+00  7.455E+00  6.709E-02  1.682E+00
   1    5    8     3     5    1.0456E+00  1.5790E-01   8.8768E-01  0.000E+00  0.000E+00  0.000E+00  1.06362E+03  1.164E+00  6.655E+00  4.991E-02  1.582E+00
   1    6    8     3     6    8.8768E-01  5.5980E-02   8.3170E-01  0.000E+00  0.000E+00  0.000E+00  1.06158E+03  1.036E+00  6.145E+00  1.844E-02  1.518E+00
   1    5   10     4     1    1.0000E+01  9.0919E-02   9.9091E+00  0.000E+00  0.000E+00  0.000E+00  1.07836E+03  6.368E-01  1.000E+01  2.500E-02  1.212E+00
   1    5    9     4     2    9.9091E+00  1.8158E-01   9.7275E+00  0.000E+00  0.000E+00  0.000E+00  1.07154E+03  6.315E-01  1.000E+01  5.000E-02  1.211E+00
   1    6    8     4     3    9.7275E+00  1.2689E-01   9.6006E+00  0.000E+00  0.000E+00  0.000E+00  1.06381E+03  6.256E-01  1.000E+01  3.500E-02  1.209E+00
   1    6    8     5     1    1.0432E+01  2.2686E-01   1.0205E+01  0.000E+00  0.000E+00  0.000E+00  1.05868E+03  6.790E-01  1.542E+01  6.166E-02  1.226E+00
   1    7    7     5     2    1.0205E+01  2.7894E-01   9.9265E+00  0.000E+00  0.000E+00  0.000E+00  1.05417E+03  6.732E-01  1.519E+01  7.594E-02  1.224E+00
   1    8    7     5     3    9.9265E+00  1.9221E-01   9.7343E+00  0.000E+00  0.000E+00  0.000E+00  1.04992E+03  6.676E-01  1.497E+01  5.241E-02  1.223E+00
   1    8    6     5     4    9.7343E+00  1.3577E-01   9.5985E+00  0.000E+00  0.000E+00  0.000E+00  1.04691E+03  6.637E-01  1.482E+01  3.706E-02  1.221E+00
   1    9    6     6     1    4.1456E+01  2.7904E-01   4.1177E+01  0.000E+00  0.000E+00  0.000E+00  1.04438E+03  1.651E+00  1.200E+01  6.000E-02  1.550E+00
   1   10    7     6     2    4.1177E+01  2.7863E-01   4.0898E+01  0.000E+00  0.000E+00  0.000E+00  1.03983E+03  1.644E+00  1.200E+01  6.000E-02  1.548E+00
   1   11    7     6     3    4.0898E+01  2.7823E-01   4.0620E+01  0.000E+00  0.000E+00  0.000E+00  1.03527E+03  1.637E+00  1.200E+01  6.000E-02  1.546E+00
   1   12    7     6     4    4.0620E+01  2.7783E-01   4.0342E+01  0.000E+00  0.000E+00  0.000E+00  1.03072E+03  1.630E+00  1.200E+01  6.000E-02  1.543E+00
   1   13    7     6     5    4.0342E+01  2.5739E-02   4.0316E+01  0.000E+00  0.000E+00  0.000E+00  1.02754E+03  1.627E+00  1.200E+01  2.400E-02  3.575E-01
   1   14    9     7     1    1.5000E+02  1.4004E+00   1.4860E+02  0.000E+00  0.000E+00  0.000E+00  1.03987E+03  2.288E+00  5.529E+01  5.593E-01  8.346E-01
   1   13    8     7     2    1.4860E+02  2.0349E+00   1.4656E+02  0.000E+00  0.000E+00  0.000E+00  1.03478E+03  2.278E+00  5.525E+01  6.147E-01  1.103E+00
   1   13    7     7     3    1.4656E+02  1.8001E+00   1.4476E+02  0.000E+00  0.000E+00  0.000E+00  1.02969E+03  2.268E+00  5.521E+01  5.583E-01  1.075E+00
   1   13    6     8     1    1.8508E+02  1.3098E+00   1.8377E+02  0.000E+00  0.000E+00  0.000E+00  1.02492E+03  3.044E+00  4.413E+01  4.497E-01  9.708E-01
   1   13    5     8     2    1.8377E+02  5.0575E-01   1.8327E+02  0.000E+00  0.000E+00  0.000E+00  1.01866E+03  3.038E+00  4.405E+01  4.489E-01  3.755E-01
   1   13    4     8     3    1.8327E+02 -1.3954E+00   1.8466E+02  0.000E+00  0.000E+00  0.000E+00  1.01242E+03  3.041E+00  4.409E+01  4.493E+00 -1.035E-01
   1   13    3     8     4    1.8466E+02 -3.1134E+00   1.8777E+02  0.000E+00  0.000E+00  0.000E+00  1.00618E+03  3.055E+00  4.429E+01  4.514E+00 -2.299E-01
   1   13    2     8     5    1.8777E+02 -2.3788E+00   1.9015E+02  0.000E+00  0.000E+00  0.000E+00  9.99947E+02  3.072E+00  4.454E+01  4.539E+00 -1.747E-01
   1   13    1     8     6    1.9015E+02 -1.8658E+00   1.9202E+02  0.000E+00  0.000E+00  0.000E+00  9.94960E+02  3.085E+00  4.473E+01  2.735E+00 -2.274E-01
   1    8    6     9     1    0.0000E+00  0.0000E+00   0.0000E+00  0.000E+00  0.000E+00  0.000E+00  1.07875E+03  0.000E+00  4.000E+00  0.000E+00  1.000E+00
   1    8    5     9     2    0.0000E+00  0.0000E+00   0.0000E+00  0.000E+00  0.000E+00  0.000E+00  1.07825E+03  0.000E+00  4.000E+00  0.000E+00  1.000E+00





UNSATURATED ZONE PACKAGE VOLUMETRIC BUDGET FOR  TIME STEP    30 STRESS PERIOD   40
  ------------------------------------------------------------------------------



     CUMULATIVE VOLUMES      L**3       RATES FOR THIS TIME STEP      L**3/T
     ------------------                 ------------------------

           IN:                                      IN:
           ---                                      ---
        INFILTRATION =  1760814600.5989          INFILTRATION =           0.8475

          OUT:                                     OUT:
          ----                                     ----
              UZF ET =  1288983148.9997                UZF ET =           0.7500
        UZF RECHARGE =   124579011.4208          UZF RECHARGE =           0.7432

            IN - OUT =   347252440.1785              IN - OUT =          -0.6457

          STORAGE:                                 STORAGE:
          --------                                 --------
      STORAGE CHANGE =   347252691.2311        STORAGE CHANGE =          -0.6457

 PERCENT DISCREPANCY IS DIFFERENCE BETWEEN IN-OUT MINUS CHANGE IN STORAGE
 DIVIDED BY THE AVERAGE OF IN AND OUT TIMES 100

 PERCENT DISCREPANCY =          -0.00     PERCENT DISCREPANCY =           0.00






1
  VOLUMETRIC BUDGET FOR AGRICULTURAL FIELDS AT  END OF TIME STEP   30, STRESS PERIOD  40
  ------------------------------------------------------------------------------

     CUMULATIVE VOLUMES      L**3       RATES FOR THIS TIME STEP      L**3/T
     ------------------                 ------------------------

           IN:                                      IN:
           ---                                      ---
               AG WELLS  =  1086541952.0000                 AG WELLS  =           0.0000
      DIVERSION SEGMENTS =   587377792.0000        DIVERSION SEGMENTS =           0.0000
       IRRIGATION PONDS  =           0.0000         IRRIGATION PONDS  =           0.0000
           GW IRRIGATION =           0.0000             GW IRRIGATION =           0.0000
           SW IRRIGATION =           0.0000             SW IRRIGATION =           0.0000
        SYSTEM LOSSES GW =           0.0000          SYSTEM LOSSES GW =           0.0000
        SYSTEM LOSSES SW =           0.0000          SYSTEM LOSSES SW =           0.0000

                TOTAL IN =  1673919744.0000                  TOTAL IN =           0.0000

          OUT:                                     OUT:
          ----                                     ----
               AG WELLS  =           0.0000                 AG WELLS  =           0.0000
      DIVERSION SEGMENTS =           0.0000        DIVERSION SEGMENTS =           0.0000
       IRRIGATION PONDS  =           0.0000         IRRIGATION PONDS  =           0.0000
           GW IRRIGATION =  1086541952.0000             GW IRRIGATION =           0.0000
           SW IRRIGATION =   587388864.0000             SW IRRIGATION =           0.0000
        SYSTEM LOSSES GW =           0.0000          SYSTEM LOSSES GW =           0.0000
        SYSTEM LOSSES SW =           0.0000          SYSTEM LOSSES SW =           0.0000

               TOTAL OUT =  1673930752.0000                 TOTAL OUT =           0.0000

                IN - OUT =      -11008.0000                  IN - OUT =           0.0000

     PERCENT DISCREPANCY =          -0.00         PERCENT DISCREPANCY =           0.00



1
  VOLUMETRIC BUDGET FOR ENTIRE MODEL AT END OF TIME STEP   30, STRESS PERIOD  40
  ------------------------------------------------------------------------------

     CUMULATIVE VOLUMES      L**3       RATES FOR THIS TIME STEP      L**3/T
     ------------------                 ------------------------

           IN:                                      IN:
           ---                                      ---
             STORAGE     =  1665178112.0000               STORAGE     =           1.9662
       CONSTANT HEAD     =           0.0000         CONSTANT HEAD     =           0.0000
     HEAD DEP BOUNDS     =    29633594.0000       HEAD DEP BOUNDS     =           0.2902
      STREAM LEAKAGE     =  1229832576.0000        STREAM LEAKAGE     =          13.4837
        UZF RECHARGE     =   124579104.0000          UZF RECHARGE     =           0.7432
               GW ET     =           0.0000                 GW ET     =           0.0000
     SURFACE LEAKAGE     =           0.0000       SURFACE LEAKAGE     =           0.0000
           AG WELLS      =           0.0000             AG WELLS      =           0.0000

                TOTAL IN =  3049223424.0000                  TOTAL IN =          16.4833

          OUT:                                     OUT:
          ----                                     ----
             STORAGE     =   925618752.0000               STORAGE     =           7.4386
       CONSTANT HEAD     =           0.0000         CONSTANT HEAD     =           0.0000
     HEAD DEP BOUNDS     =    29536914.0000       HEAD DEP BOUNDS     =           0.2904
      STREAM LEAKAGE     =  1007505280.0000        STREAM LEAKAGE     =           8.7534
        UZF RECHARGE     =           0.0000          UZF RECHARGE     =           0.0000
               GW ET     =           0.0000                 GW ET     =           0.0000
     SURFACE LEAKAGE     =           0.0000       SURFACE LEAKAGE     =           0.0000
           AG WELLS      =  1086541952.0000             AG WELLS      =           0.0000

               TOTAL OUT =  3049202688.0000                 TOTAL OUT =          16.4825

                IN - OUT =       20736.0000                  IN - OUT =       8.3923E-04

     PERCENT DISCREPANCY =           0.00         PERCENT DISCREPANCY =           0.01






         TIME SUMMARY AT END OF TIME STEP   30 IN STRESS PERIOD   40
                    SECONDS     MINUTES      HOURS       DAYS        YEARS
                    -----------------------------------------------------------
   TIME STEP LENGTH  87667.      1461.1      24.352      1.0147     2.77799E-03
 STRESS PERIOD TIME 2.63000E+06  43833.      730.56      30.440     8.33397E-02
         TOTAL TIME 1.02656E+08 1.71093E+06  28515.      1188.1      3.2530    
1
1
                            STRESS PERIOD NO.   41, LENGTH =   2630000.    
                            -----------------------------------------------

                              NUMBER OF TIME STEPS =    30

                               MULTIPLIER FOR DELT =     1.000

                            INITIAL TIME STEP SIZE =   87666.66    

 REUSING NON-PARAMETER GHB CELLS FROM LAST STRESS PERIOD

      2 GHB CELLS

 REUSING STREAM SEGMENT DATA FROM LAST STRESS PERIOD



            AREAL INFILTRATION RATE
 READING ON UNIT   19 WITH FORMAT: (FREE)              

            1           2           3           4           5           6           7           8           9          10
 ........................................................................................................................
   1   1.0000E-10  2.0000E-10   0.000       0.000       0.000       0.000       0.000       0.000       0.000       0.000    
   2   2.0000E-10  1.0000E-10  2.0000E-10   0.000       0.000      8.0000E-10  8.0000E-10  5.0000E-10   0.000       0.000    
   3    0.000      5.0000E-10  1.0000E-10  1.0000E-10  8.0000E-10  8.0000E-10  5.0000E-10  5.0000E-10   0.000       0.000    
   4   8.0000E-10  5.0000E-10  1.0000E-10  1.0000E-10  1.0000E-10  1.0000E-10  1.0000E-10  1.0000E-10  2.0000E-10   0.000    
   5   8.0000E-10  5.0000E-10  1.0000E-10  1.0000E-10  1.0000E-10  1.0000E-10  1.0000E-10  1.0000E-10  1.0000E-10  1.0000E-10
   6   8.0000E-10  5.0000E-10  5.0000E-10  2.0000E-10  2.0000E-10  1.0000E-10  1.0000E-10  1.0000E-10  1.0000E-10  5.0000E-10
   7   8.0000E-10  5.0000E-10  5.0000E-10  2.0000E-10  2.0000E-10  1.0000E-10  1.0000E-10  2.0000E-10  2.0000E-10   0.000    
   8    0.000      5.0000E-10  5.0000E-10  2.0000E-10  2.0000E-10  1.0000E-10  1.0000E-10  2.0000E-10  5.0000E-10   0.000    
   9    0.000      5.0000E-10  5.0000E-10  2.0000E-10  2.0000E-10  1.0000E-10  1.0000E-10  2.0000E-10  5.0000E-10   0.000    
  10    0.000      5.0000E-10  5.0000E-10  2.0000E-10  2.0000E-10  1.0000E-10  1.0000E-10  2.0000E-10  5.0000E-10  8.0000E-10
  11    0.000      1.0000E-10  1.0000E-10  1.0000E-10  1.0000E-10  1.0000E-10  1.0000E-10  2.0000E-10  5.0000E-10   0.000    
  12   1.0000E-10  1.0000E-10  1.0000E-10  1.0000E-10  1.0000E-10  1.0000E-10  1.0000E-10  1.0000E-10  2.0000E-10   0.000    
  13   1.0000E-10  1.0000E-10  2.0000E-10  2.0000E-10  2.0000E-10  2.0000E-10  2.0000E-10  1.0000E-10  1.0000E-10   0.000    
  14    0.000      2.0000E-10  5.0000E-10  5.0000E-10  5.0000E-10  5.0000E-10  5.0000E-10  2.0000E-10  1.0000E-10   0.000    
  15    0.000       0.000      8.0000E-10  8.0000E-10  8.0000E-10  8.0000E-10   0.000       0.000       0.000       0.000    

                  ET RATE =  2.500000E-08

 USING ET EXTINCTION DEPTH FROM PREVIOUS STRESS PERIOD. CURRENT PERIOD IS:      41

 USING EXTINCTION WATER CONTENT FROM PREVIOUS STRESS PERIOD. CURRENT PERIOD IS:      41

 USING AIR ENTRY PRESSURE FROM PREVIOUS STRESS PERIOD. CURRENT PERIOD IS:      41

 USING ROOT PRESSURE HEAD FROM PREVIOUS STRESS PERIOD. CURRENT PERIOD IS:      41

 USING ROOT ACTIVITY FROM PREVIOUS STRESS PERIOD. CURRENT PERIOD IS:      41

 PROCESSING AG STRESS PERIOD DATA

 READING AG STRESS PERIOD DATA

 READING IRRIGATION SEGMENT

 READING IRRIGATION WELL

 READING SUPPLEMENTAL WELL

 NO IRRPOND OR REUSING IRRPOND DATA FROM LAST STRESS PERIOD

 END PROCESSING AG STRESS PERIOD DATA OPTIONS
 
 SOLVING FOR HEAD 
                                                   Max.-Head-Change                         Max.-Flux-Residual
  Residual-Control   Outer-Iter.   Inner-Iter.     Column Row Layer    Maximum-Head-Change  Column Row Layer    Maximum-Flux-Residual          L2-NORM 
          0                 1           2             3    7     1       0.8043938423E-02       4    7    1         0.3105100314E+00      0.1212166181E+01
          0                 2           2             4    7     1       0.8950633470E-03       4    7    1         0.4716290018E-01      0.1442639482E+00
          0                 3           2             4    7     1       0.1342979511E-03       4    7    1         0.7035080883E-02      0.1664011726E-01
          0                 4           1             4    7     1       0.2013465343E-04       4    7    1         0.1057931278E-02      0.2265018743E-02

    ------------------------------------------------
       NWT REQUIRED            4 OUTER ITERATIONS 
       AND A TOTAL OF          7 INNER ITERATIONS.
    ------------------------------------------------

 NO OUTPUT CONTROL FOR STRESS PERIOD   41   TIME STEP    1
 
 SOLVING FOR HEAD 
                                                   Max.-Head-Change                         Max.-Flux-Residual
  Residual-Control   Outer-Iter.   Inner-Iter.     Column Row Layer    Maximum-Head-Change  Column Row Layer    Maximum-Flux-Residual          L2-NORM 
          0                 1           2             3    7     1       0.8004100432E-02       4    7    1         0.3088158955E+00      0.1206907421E+01
          0                 2           2             4    7     1       0.8902186268E-03       4    7    1         0.4690705297E-01      0.1436118923E+00
          0                 3           2             4    7     1       0.1335740552E-03       4    7    1         0.6997061773E-02      0.1655921765E-01
          0                 4           1             4    7     1       0.2002654068E-04       4    7    1         0.1052238271E-02      0.2253588205E-02

    ------------------------------------------------
       NWT REQUIRED            4 OUTER ITERATIONS 
       AND A TOTAL OF          7 INNER ITERATIONS.
    ------------------------------------------------

 NO OUTPUT CONTROL FOR STRESS PERIOD   41   TIME STEP    2
 
 SOLVING FOR HEAD 
                                                   Max.-Head-Change                         Max.-Flux-Residual
  Residual-Control   Outer-Iter.   Inner-Iter.     Column Row Layer    Maximum-Head-Change  Column Row Layer    Maximum-Flux-Residual          L2-NORM 
          0                 1           2             3    7     1       0.7964435390E-02       4    7    1         0.3071353972E+00      0.1201784277E+01
          0                 2           2             4    7     1       0.8854114340E-03       4    7    1         0.4665320896E-01      0.1429722940E+00
          0                 3           2             4    7     1       0.1328556562E-03       4    7    1         0.6959334871E-02      0.1647927831E-01
          0                 4           1             4    7     1       0.1991923354E-04       4    7    1         0.1046588127E-02      0.2242249821E-02

    ------------------------------------------------
       NWT REQUIRED            4 OUTER ITERATIONS 
       AND A TOTAL OF          7 INNER ITERATIONS.
    ------------------------------------------------

 NO OUTPUT CONTROL FOR STRESS PERIOD   41   TIME STEP    3
 
 SOLVING FOR HEAD 
                                                   Max.-Head-Change                         Max.-Flux-Residual
  Residual-Control   Outer-Iter.   Inner-Iter.     Column Row Layer    Maximum-Head-Change  Column Row Layer    Maximum-Flux-Residual          L2-NORM 
          0                 1           2             3    7     1       0.7925187194E-02       4    7    1         0.3054754140E+00      0.1193004653E+01
          0                 2           2             4    7     1       0.8806599637E-03       4    7    1         0.4640236140E-01      0.1420325579E+00
          0                 3           2             4    7     1       0.1321453336E-03       4    7    1         0.6922039885E-02      0.1638739717E-01
          0                 4           1             4    7     1       0.1981309742E-04       4    7    1         0.1041000734E-02      0.2230807762E-02

    ------------------------------------------------
       NWT REQUIRED            4 OUTER ITERATIONS 
       AND A TOTAL OF          7 INNER ITERATIONS.
    ------------------------------------------------

 NO OUTPUT CONTROL FOR STRESS PERIOD   41   TIME STEP    4
 
 SOLVING FOR HEAD 
                                                   Max.-Head-Change                         Max.-Flux-Residual
  Residual-Control   Outer-Iter.   Inner-Iter.     Column Row Layer    Maximum-Head-Change  Column Row Layer    Maximum-Flux-Residual          L2-NORM 
          0                 1           2             3    7     1       0.7886348549E-02       4    7    1         0.3038205497E+00      0.1187323113E+01
          0                 2           2             4    7     1       0.8759039362E-03       4    7    1         0.4615165828E-01      0.1411997681E+00
          0                 3           2             4    7     1       0.1314325981E-03       4    7    1         0.6884670939E-02      0.1629224041E-01
          0                 4           1             4    7     1       0.1970635315E-04       4    7    1         0.1035389042E-02      0.2218584978E-02

    ------------------------------------------------
       NWT REQUIRED            4 OUTER ITERATIONS 
       AND A TOTAL OF          7 INNER ITERATIONS.
    ------------------------------------------------

 NO OUTPUT CONTROL FOR STRESS PERIOD   41   TIME STEP    5
 
 SOLVING FOR HEAD 
                                                   Max.-Head-Change                         Max.-Flux-Residual
  Residual-Control   Outer-Iter.   Inner-Iter.     Column Row Layer    Maximum-Head-Change  Column Row Layer    Maximum-Flux-Residual          L2-NORM 
          0                 1           2             3    7     1       0.7847428035E-02       4    7    1         0.3021894965E+00      0.1178651895E+01
          0                 2           2             4    7     1       0.8712131296E-03       4    7    1         0.4590442716E-01      0.1402692809E+00
          0                 3           2             4    7     1       0.1307294181E-03       4    7    1         0.6847810596E-02      0.1619858002E-01
          0                 4           1             4    7     1       0.1960101088E-04       4    7    1         0.1029851880E-02      0.2206693467E-02

    ------------------------------------------------
       NWT REQUIRED            4 OUTER ITERATIONS 
       AND A TOTAL OF          7 INNER ITERATIONS.
    ------------------------------------------------

 NO OUTPUT CONTROL FOR STRESS PERIOD   41   TIME STEP    6
 
 SOLVING FOR HEAD 
                                                   Max.-Head-Change                         Max.-Flux-Residual
  Residual-Control   Outer-Iter.   Inner-Iter.     Column Row Layer    Maximum-Head-Change  Column Row Layer    Maximum-Flux-Residual          L2-NORM 
          0                 1           2             3    7     1       0.7808916525E-02       4    7    1         0.3005667500E+00      0.1170761176E+01
          0                 2           2             4    7     1       0.8665478383E-03       4    7    1         0.4565851773E-01      0.1394038082E+00
          0                 3           2             4    7     1       0.1300301923E-03       4    7    1         0.6811153209E-02      0.1610811195E-01
          0                 4           1             4    7     1       0.1949627951E-04       4    7    1         0.1024346277E-02      0.2194945653E-02

    ------------------------------------------------
       NWT REQUIRED            4 OUTER ITERATIONS 
       AND A TOTAL OF          7 INNER ITERATIONS.
    ------------------------------------------------

 NO OUTPUT CONTROL FOR STRESS PERIOD   41   TIME STEP    7
 
 SOLVING FOR HEAD 
                                                   Max.-Head-Change                         Max.-Flux-Residual
  Residual-Control   Outer-Iter.   Inner-Iter.     Column Row Layer    Maximum-Head-Change  Column Row Layer    Maximum-Flux-Residual          L2-NORM 
          0                 1           2             3    7     1       0.7770805808E-02       4    7    1         0.2989525316E+00      0.1163528867E+01
          0                 2           2             4    7     1       0.8619095834E-03       4    7    1         0.4541399335E-01      0.1385937604E+00
          0                 3           2             4    7     1       0.1293352212E-03       4    7    1         0.6774712386E-02      0.1602034607E-01
          0                 4           1             4    7     1       0.1939221305E-04       4    7    1         0.1018874798E-02      0.2183297119E-02

    ------------------------------------------------
       NWT REQUIRED            4 OUTER ITERATIONS 
       AND A TOTAL OF          7 INNER ITERATIONS.
    ------------------------------------------------

 NO OUTPUT CONTROL FOR STRESS PERIOD   41   TIME STEP    8
 
 SOLVING FOR HEAD 
                                                   Max.-Head-Change                         Max.-Flux-Residual
  Residual-Control   Outer-Iter.   Inner-Iter.     Column Row Layer    Maximum-Head-Change  Column Row Layer    Maximum-Flux-Residual          L2-NORM 
          0                 1           2             3    7     1       0.7732846169E-02       4    7    1         0.2973472100E+00      0.1156856509E+01
          0                 2           2             4    7     1       0.8572974327E-03       4    7    1         0.4517083174E-01      0.1378303825E+00
          0                 3           2             4    7     1       0.1286442183E-03       4    7    1         0.6738477946E-02      0.1593486309E-01
          0                 4           1             4    7     1       0.1928875024E-04       4    7    1         0.1013434737E-02      0.2171795037E-02

    ------------------------------------------------
       NWT REQUIRED            4 OUTER ITERATIONS 
       AND A TOTAL OF          7 INNER ITERATIONS.
    ------------------------------------------------

 NO OUTPUT CONTROL FOR STRESS PERIOD   41   TIME STEP    9
 
 SOLVING FOR HEAD 
                                                   Max.-Head-Change                         Max.-Flux-Residual
  Residual-Control   Outer-Iter.   Inner-Iter.     Column Row Layer    Maximum-Head-Change  Column Row Layer    Maximum-Flux-Residual          L2-NORM 
          0                 1           2             3    7     1       0.7695037980E-02       4    7    1         0.2957580957E+00      0.1150650104E+01
          0                 2           2             4    7     1       0.8527329959E-03       4    7    1         0.4493015641E-01      0.1371069273E+00
          0                 3           2             4    7     1       0.1279604634E-03       4    7    1         0.6702621117E-02      0.1585183787E-01
          0                 4           1             4    7     1       0.1918638430E-04       4    7    1         0.1008051996E-02      0.2160416718E-02

    ------------------------------------------------
       NWT REQUIRED            4 OUTER ITERATIONS 
       AND A TOTAL OF          7 INNER ITERATIONS.
    ------------------------------------------------

 NO OUTPUT CONTROL FOR STRESS PERIOD   41   TIME STEP   10
 
 SOLVING FOR HEAD 
                                                   Max.-Head-Change                         Max.-Flux-Residual
  Residual-Control   Outer-Iter.   Inner-Iter.     Column Row Layer    Maximum-Head-Change  Column Row Layer    Maximum-Flux-Residual          L2-NORM 
          0                 1           2             3    7     1       0.7657623147E-02       4    7    1         0.2941851952E+00      0.1144846355E+01
          0                 2           2             4    7     1       0.8482128953E-03       4    7    1         0.4469185847E-01      0.1364177471E+00
          0                 3           2             4    7     1       0.1272831846E-03       4    7    1         0.6667108643E-02      0.1577043886E-01
          0                 4           1             4    7     1       0.1908496764E-04       4    7    1         0.1002719772E-02      0.2149181523E-02

    ------------------------------------------------
       NWT REQUIRED            4 OUTER ITERATIONS 
       AND A TOTAL OF          7 INNER ITERATIONS.
    ------------------------------------------------

 NO OUTPUT CONTROL FOR STRESS PERIOD   41   TIME STEP   11
 
 SOLVING FOR HEAD 
                                                   Max.-Head-Change                         Max.-Flux-Residual
  Residual-Control   Outer-Iter.   Inner-Iter.     Column Row Layer    Maximum-Head-Change  Column Row Layer    Maximum-Flux-Residual          L2-NORM 
          0                 1           2             3    7     1       0.7620595883E-02       4    7    1         0.2926206378E+00      0.1139387270E+01
          0                 2           2             4    7     1       0.8437197898E-03       4    7    1         0.4445493475E-01      0.1357588132E+00
          0                 3           2             4    7     1       0.1266101878E-03       4    7    1         0.6631813254E-02      0.1569090152E-01
          0                 4           1             4    7     1       0.1898422492E-04       4    7    1         0.9974220029E-03      0.2138059540E-02

    ------------------------------------------------
       NWT REQUIRED            4 OUTER ITERATIONS 
       AND A TOTAL OF          7 INNER ITERATIONS.
    ------------------------------------------------

 NO OUTPUT CONTROL FOR STRESS PERIOD   41   TIME STEP   12
 
 SOLVING FOR HEAD 
                                                   Max.-Head-Change                         Max.-Flux-Residual
  Residual-Control   Outer-Iter.   Inner-Iter.     Column Row Layer    Maximum-Head-Change  Column Row Layer    Maximum-Flux-Residual          L2-NORM 
          0                 1           2             3    7     1       0.7583464645E-02       4    7    1         0.2910648789E+00      0.1134212492E+01
          0                 2           2             4    7     1       0.8392527282E-03       4    7    1         0.4421935744E-01      0.1351238903E+00
          0                 3           2             4    7     1       0.1259411775E-03       4    7    1         0.6596724907E-02      0.1561273386E-01
          0                 4           1             4    7     1       0.1888409033E-04       4    7    1         0.9921558301E-03      0.2127053186E-02

    ------------------------------------------------
       NWT REQUIRED            4 OUTER ITERATIONS 
       AND A TOTAL OF          7 INNER ITERATIONS.
    ------------------------------------------------

 NO OUTPUT CONTROL FOR STRESS PERIOD   41   TIME STEP   13
 
 SOLVING FOR HEAD 
                                                   Max.-Head-Change                         Max.-Flux-Residual
  Residual-Control   Outer-Iter.   Inner-Iter.     Column Row Layer    Maximum-Head-Change  Column Row Layer    Maximum-Flux-Residual          L2-NORM 
          0                 1           2             3    7     1       0.7546961225E-02       4    7    1         0.2895252385E+00      0.1129282131E+01
          0                 2           2             4    7     1       0.8348311063E-03       4    7    1         0.4398620088E-01      0.1345110081E+00
          0                 3           2             4    7     1       0.1252788938E-03       4    7    1         0.6561991218E-02      0.1553595608E-01
          0                 4           1             4    7     1       0.1878495307E-04       4    7    1         0.9869424102E-03      0.2116132406E-02

    ------------------------------------------------
       NWT REQUIRED            4 OUTER ITERATIONS 
       AND A TOTAL OF          7 INNER ITERATIONS.
    ------------------------------------------------

 NO OUTPUT CONTROL FOR STRESS PERIOD   41   TIME STEP   14
 
 SOLVING FOR HEAD 
                                                   Max.-Head-Change                         Max.-Flux-Residual
  Residual-Control   Outer-Iter.   Inner-Iter.     Column Row Layer    Maximum-Head-Change  Column Row Layer    Maximum-Flux-Residual          L2-NORM 
          0                 1           2             3    7     1       0.7510348162E-02       4    7    1         0.2879941160E+00      0.1124569195E+01
          0                 2           2             4    7     1       0.8304356964E-03       4    7    1         0.4375438094E-01      0.1339176294E+00
          0                 3           2             4    7     1       0.1246207067E-03       4    7    1         0.6527467766E-02      0.1546055072E-01
          0                 4           1             4    7     1       0.1868645209E-04       4    7    1         0.9817617199E-03      0.2105301836E-02

    ------------------------------------------------
       NWT REQUIRED            4 OUTER ITERATIONS 
       AND A TOTAL OF          7 INNER ITERATIONS.
    ------------------------------------------------

 NO OUTPUT CONTROL FOR STRESS PERIOD   41   TIME STEP   15
 
 SOLVING FOR HEAD 
                                                   Max.-Head-Change                         Max.-Flux-Residual
  Residual-Control   Outer-Iter.   Inner-Iter.     Column Row Layer    Maximum-Head-Change  Column Row Layer    Maximum-Flux-Residual          L2-NORM 
          0                 1           2             3    7     1       0.7474114123E-02       4    7    1         0.2864716804E+00      0.1120034289E+01
          0                 2           2             4    7     1       0.8260663136E-03       4    7    1         0.4352391997E-01      0.1333402902E+00
          0                 3           2             4    7     1       0.1239664965E-03       4    7    1         0.6493150223E-02      0.1538609801E-01
          0                 4           1             4    7     1       0.1858855750E-04       4    7    1         0.9766126002E-03      0.2094642187E-02

    ------------------------------------------------
       NWT REQUIRED            4 OUTER ITERATIONS 
       AND A TOTAL OF          7 INNER ITERATIONS.
    ------------------------------------------------

 NO OUTPUT CONTROL FOR STRESS PERIOD   41   TIME STEP   16
 
 SOLVING FOR HEAD 
                                                   Max.-Head-Change                         Max.-Flux-Residual
  Residual-Control   Outer-Iter.   Inner-Iter.     Column Row Layer    Maximum-Head-Change  Column Row Layer    Maximum-Flux-Residual          L2-NORM 
          0                 1           2             3    7     1       0.7438254072E-02       4    7    1         0.2849653670E+00      0.1115665865E+01
          0                 2           2             4    7     1       0.8217436817E-03       4    7    1         0.4329591446E-01      0.1327788360E+00
          0                 3           2             4    7     1       0.1233193358E-03       4    7    1         0.6459200905E-02      0.1531299027E-01
          0                 4           1             4    7     1       0.1849172538E-04       4    7    1         0.9715191040E-03      0.2084111114E-02

    ------------------------------------------------
       NWT REQUIRED            4 OUTER ITERATIONS 
       AND A TOTAL OF          7 INNER ITERATIONS.
    ------------------------------------------------

 NO OUTPUT CONTROL FOR STRESS PERIOD   41   TIME STEP   17
 
 SOLVING FOR HEAD 
                                                   Max.-Head-Change                         Max.-Flux-Residual
  Residual-Control   Outer-Iter.   Inner-Iter.     Column Row Layer    Maximum-Head-Change  Column Row Layer    Maximum-Flux-Residual          L2-NORM 
          0                 1           2             3    7     1       0.7402519507E-02       4    7    1         0.2834750830E+00      0.1111433468E+01
          0                 2           2             4    7     1       0.8174658358E-03       4    7    1         0.4307028474E-01      0.1322300195E+00
          0                 3           1             4    7     1       0.1226787930E-03       4    7    1         0.6425601801E-02      0.1524071245E-01
          0                 4           1             4    7     1       0.1839586695E-04       4    7    1         0.9664774400E-03      0.2073614694E-02

    ------------------------------------------------
       NWT REQUIRED            4 OUTER ITERATIONS 
       AND A TOTAL OF          6 INNER ITERATIONS.
    ------------------------------------------------

 NO OUTPUT CONTROL FOR STRESS PERIOD   41   TIME STEP   18
 
 SOLVING FOR HEAD 
                                                   Max.-Head-Change                         Max.-Flux-Residual
  Residual-Control   Outer-Iter.   Inner-Iter.     Column Row Layer    Maximum-Head-Change  Column Row Layer    Maximum-Flux-Residual          L2-NORM 
          0                 1           2             3    7     1       0.7366912623E-02       4    7    1         0.2819931013E+00      0.1107319461E+01
          0                 2           2             4    7     1       0.8132118206E-03       4    7    1         0.4284590683E-01      0.1316927116E+00
          0                 3           1             4    7     1       0.1220418374E-03       4    7    1         0.6392190315E-02      0.1516944382E-01
          0                 4           1             4    7     1       0.1830055401E-04       4    7    1         0.9614640639E-03      0.2063239165E-02

    ------------------------------------------------
       NWT REQUIRED            4 OUTER ITERATIONS 
       AND A TOTAL OF          6 INNER ITERATIONS.
    ------------------------------------------------

 NO OUTPUT CONTROL FOR STRESS PERIOD   41   TIME STEP   19
 
 SOLVING FOR HEAD 
                                                   Max.-Head-Change                         Max.-Flux-Residual
  Residual-Control   Outer-Iter.   Inner-Iter.     Column Row Layer    Maximum-Head-Change  Column Row Layer    Maximum-Flux-Residual          L2-NORM 
          0                 1           2             3    7     1       0.7331672926E-02       4    7    1         0.2805193188E+00      0.1103315821E+01
          0                 2           2             4    7     1       0.8089842315E-03       4    7    1         0.4262287655E-01      0.1311661855E+00
          0                 3           1             4    7     1       0.1214090577E-03       4    7    1         0.6358991115E-02      0.1509905794E-01
          0                 4           1             4    7     1       0.1820589461E-04       4    7    1         0.9564842187E-03      0.2052974073E-02

    ------------------------------------------------
       NWT REQUIRED            4 OUTER ITERATIONS 
       AND A TOTAL OF          6 INNER ITERATIONS.
    ------------------------------------------------

 NO OUTPUT CONTROL FOR STRESS PERIOD   41   TIME STEP   20
 
 SOLVING FOR HEAD 
                                                   Max.-Head-Change                         Max.-Flux-Residual
  Residual-Control   Outer-Iter.   Inner-Iter.     Column Row Layer    Maximum-Head-Change  Column Row Layer    Maximum-Flux-Residual          L2-NORM 
          0                 1           2             3    7     1       0.7296796252E-02       4    7    1         0.2790614867E+00      0.1099408110E+01
          0                 2           2             4    7     1       0.8048017505E-03       4    7    1         0.4240223691E-01      0.1306495009E+00
          0                 3           1             4    7     1       0.1207829809E-03       4    7    1         0.6326145033E-02      0.1502955696E-01
          0                 4           1             4    7     1       0.1811223165E-04       4    7    1         0.9515569604E-03      0.2042803226E-02

    ------------------------------------------------
       NWT REQUIRED            4 OUTER ITERATIONS 
       AND A TOTAL OF          6 INNER ITERATIONS.
    ------------------------------------------------

 NO OUTPUT CONTROL FOR STRESS PERIOD   41   TIME STEP   21
 
 SOLVING FOR HEAD 
                                                   Max.-Head-Change                         Max.-Flux-Residual
  Residual-Control   Outer-Iter.   Inner-Iter.     Column Row Layer    Maximum-Head-Change  Column Row Layer    Maximum-Flux-Residual          L2-NORM 
          0                 1           2             3    7     1       0.7262032769E-02       4    7    1         0.2776119990E+00      0.1095582572E+01
          0                 2           2             4    7     1       0.8006432721E-03       4    7    1         0.4218285764E-01      0.1301410365E+00
          0                 3           1             4    7     1       0.1201605185E-03       4    7    1         0.6293487986E-02      0.1496082015E-01
          0                 4           1             4    7     1       0.1801911293E-04       4    7    1         0.9466582185E-03      0.2032726975E-02

    ------------------------------------------------
       NWT REQUIRED            4 OUTER ITERATIONS 
       AND A TOTAL OF          6 INNER ITERATIONS.
    ------------------------------------------------

 NO OUTPUT CONTROL FOR STRESS PERIOD   41   TIME STEP   22
 
 SOLVING FOR HEAD 
                                                   Max.-Head-Change                         Max.-Flux-Residual
  Residual-Control   Outer-Iter.   Inner-Iter.     Column Row Layer    Maximum-Head-Change  Column Row Layer    Maximum-Flux-Residual          L2-NORM 
          0                 1           2             3    7     1       0.7227384887E-02       4    7    1         0.2761780818E+00      0.1091830637E+01
          0                 2           2             4    7     1       0.7965296496E-03       4    7    1         0.4196583144E-01      0.1296407142E+00
          0                 3           1             4    7     1       0.1195447987E-03       4    7    1         0.6261184310E-02      0.1489288844E-01
          0                 4           1             4    7     1       0.1792700729E-04       4    7    1         0.9418126358E-03      0.2022758388E-02

    ------------------------------------------------
       NWT REQUIRED            4 OUTER ITERATIONS 
       AND A TOTAL OF          6 INNER ITERATIONS.
    ------------------------------------------------

 NO OUTPUT CONTROL FOR STRESS PERIOD   41   TIME STEP   23
 
 SOLVING FOR HEAD 
                                                   Max.-Head-Change                         Max.-Flux-Residual
  Residual-Control   Outer-Iter.   Inner-Iter.     Column Row Layer    Maximum-Head-Change  Column Row Layer    Maximum-Flux-Residual          L2-NORM 
          0                 1           2             3    7     1       0.7193093812E-02       4    7    1         0.2747522474E+00      0.1088145431E+01
          0                 2           2             4    7     1       0.7924393560E-03       4    7    1         0.4175003948E-01      0.1291471172E+00
          0                 3           1             4    7     1       0.1189325748E-03       4    7    1         0.6229063631E-02      0.1482558048E-01
          0                 4           1             4    7     1       0.1783542525E-04       4    7    1         0.9369945633E-03      0.2012855299E-02

    ------------------------------------------------
       NWT REQUIRED            4 OUTER ITERATIONS 
       AND A TOTAL OF          6 INNER ITERATIONS.
    ------------------------------------------------

 NO OUTPUT CONTROL FOR STRESS PERIOD   41   TIME STEP   24
 
 SOLVING FOR HEAD 
                                                   Max.-Head-Change                         Max.-Flux-Residual
  Residual-Control   Outer-Iter.   Inner-Iter.     Column Row Layer    Maximum-Head-Change  Column Row Layer    Maximum-Flux-Residual          L2-NORM 
          0                 1           2             3    7     1       0.7158912383E-02       4    7    1         0.2733344527E+00      0.1084528407E+01
          0                 2           2             4    7     1       0.7883744829E-03       4    7    1         0.4153554056E-01      0.1286612778E+00
          0                 3           1             4    7     1       0.1183243627E-03       4    7    1         0.6197147312E-02      0.1475910208E-01
          0                 4           1             4    7     1       0.1774447162E-04       4    7    1         0.9322086798E-03      0.2003063664E-02

    ------------------------------------------------
       NWT REQUIRED            4 OUTER ITERATIONS 
       AND A TOTAL OF          6 INNER ITERATIONS.
    ------------------------------------------------

 NO OUTPUT CONTROL FOR STRESS PERIOD   41   TIME STEP   25
 
 SOLVING FOR HEAD 
                                                   Max.-Head-Change                         Max.-Flux-Residual
  Residual-Control   Outer-Iter.   Inner-Iter.     Column Row Layer    Maximum-Head-Change  Column Row Layer    Maximum-Flux-Residual          L2-NORM 
          0                 1           2             3    7     1       0.7125083019E-02       4    7    1         0.2719396404E+00      0.1080967538E+01
          0                 2           2             4    7     1       0.7843727550E-03       4    7    1         0.4132441777E-01      0.1281938208E+00
          0                 3           1             4    7     1       0.1177253776E-03       4    7    1         0.6165722211E-02      0.1469391297E-01
          0                 4           1             4    7     1       0.1765486821E-04       4    7    1         0.9274947604E-03      0.1993388031E-02

    ------------------------------------------------
       NWT REQUIRED            4 OUTER ITERATIONS 
       AND A TOTAL OF          6 INNER ITERATIONS.
    ------------------------------------------------

 NO OUTPUT CONTROL FOR STRESS PERIOD   41   TIME STEP   26
 
 SOLVING FOR HEAD 
                                                   Max.-Head-Change                         Max.-Flux-Residual
  Residual-Control   Outer-Iter.   Inner-Iter.     Column Row Layer    Maximum-Head-Change  Column Row Layer    Maximum-Flux-Residual          L2-NORM 
          0                 1           2             3    7     1       0.7091357499E-02       4    7    1         0.2705451038E+00      0.1076590335E+01
          0                 2           2             4    7     1       0.7803713145E-03       4    7    1         0.4111332424E-01      0.1276171873E+00
          0                 3           1             4    7     1       0.1171263804E-03       4    7    1         0.6134298064E-02      0.1462346666E-01
          0                 4           1             4    7     1       0.1756525330E-04       4    7    1         0.9227805313E-03      0.1983586283E-02

    ------------------------------------------------
       NWT REQUIRED            4 OUTER ITERATIONS 
       AND A TOTAL OF          6 INNER ITERATIONS.
    ------------------------------------------------

 NO OUTPUT CONTROL FOR STRESS PERIOD   41   TIME STEP   27
 
 SOLVING FOR HEAD 
                                                   Max.-Head-Change                         Max.-Flux-Residual
  Residual-Control   Outer-Iter.   Inner-Iter.     Column Row Layer    Maximum-Head-Change  Column Row Layer    Maximum-Flux-Residual          L2-NORM 
          0                 1           2             3    7     1       0.7057978381E-02       4    7    1         0.2691654091E+00      0.1080788001E+01
          0                 2           2             4    7     1       0.7764016688E-03       4    7    1         0.4090411541E-01      0.1276994647E+00
          0                 3           1             4    7     1       0.1165311976E-03       4    7    1         0.6103102917E-02      0.1457702418E-01
          0                 4           1             4    7     1       0.1747607596E-04       4    7    1         0.9180934312E-03      0.1973762059E-02

    ------------------------------------------------
       NWT REQUIRED            4 OUTER ITERATIONS 
       AND A TOTAL OF          6 INNER ITERATIONS.
    ------------------------------------------------

 NO OUTPUT CONTROL FOR STRESS PERIOD   41   TIME STEP   28
 
 SOLVING FOR HEAD 
                                                   Max.-Head-Change                         Max.-Flux-Residual
  Residual-Control   Outer-Iter.   Inner-Iter.     Column Row Layer    Maximum-Head-Change  Column Row Layer    Maximum-Flux-Residual          L2-NORM 
          0                 1           2             3    7     1       0.7024940438E-02       4    7    1         0.2677985736E+00      0.1074539793E+01
          0                 2           2             4    7     1       0.7724688323E-03       4    7    1         0.4069684988E-01      0.1270040447E+00
          0                 3           1             4    7     1       0.1159415270E-03       4    7    1         0.6072196720E-02      0.1450214939E-01
          0                 4           1             4    7     1       0.1738772486E-04       4    7    1         0.9134497411E-03      0.1963865503E-02

    ------------------------------------------------
       NWT REQUIRED            4 OUTER ITERATIONS 
       AND A TOTAL OF          6 INNER ITERATIONS.
    ------------------------------------------------

 NO OUTPUT CONTROL FOR STRESS PERIOD   41   TIME STEP   29
 
 SOLVING FOR HEAD 
                                                   Max.-Head-Change                         Max.-Flux-Residual
  Residual-Control   Outer-Iter.   Inner-Iter.     Column Row Layer    Maximum-Head-Change  Column Row Layer    Maximum-Flux-Residual          L2-NORM 
          0                 1           2             3    7     1       0.6991753006E-02       4    7    1         0.2664371249E+00      0.1068751833E+01
          0                 2           2             4    7     1       0.7685545515E-03       4    7    1         0.4049049377E-01      0.1263462229E+00
          0                 3           1             4    7     1       0.1153549137E-03       4    7    1         0.6041442981E-02      0.1442906974E-01
          0                 4           1             4    7     1       0.1729986960E-04       4    7    1         0.9088309423E-03      0.1954068298E-02

    ------------------------------------------------
       NWT REQUIRED            4 OUTER ITERATIONS 
       AND A TOTAL OF          6 INNER ITERATIONS.
    ------------------------------------------------

 NO OUTPUT CONTROL FOR STRESS PERIOD   41   TIME STEP   30



 STREAM LISTING     PERIOD     41   STEP       30

 LAYER ROW COL. STREAM  RCH.  FLOW INTO     FLOW TO   FLOW OUT OF   OVRLND.     DIRECT     STREAM       STREAM     STREAM     STREAM   STREAMBED  STREAMBED
                SEG.NO.  NO.  STRM. RCH.    AQUIFER    STRM. RCH.    RUNOFF     PRECIP       ET          HEAD       DEPTH      WIDTH   CONDCTNC.   GRADIENT

   1    1    1     1     1    2.3624E+01  2.3872E-01   2.3386E+01  0.000E+00  0.000E+00  0.000E+00  1.09421E+03  1.157E+00  1.276E+01  5.742E-02  1.386E+00
   1    2    2     1     2    2.3386E+01  3.6908E-01   2.3016E+01  0.000E+00  0.000E+00  0.000E+00  1.08921E+03  1.153E+00  1.270E+01  8.888E-02  1.384E+00
   1    3    3     1     3    2.3016E+01  3.1417E-01   2.2702E+01  0.000E+00  0.000E+00  0.000E+00  1.08357E+03  1.147E+00  1.263E+01  7.575E-02  1.382E+00
   1    3    4     1     4    2.2702E+01  2.8881E-01   2.2414E+01  0.000E+00  0.000E+00  0.000E+00  1.07855E+03  1.143E+00  1.256E+01  6.972E-02  1.381E+00
   1    4    5     2     1    2.0414E+01  3.1702E-01   2.0096E+01  0.000E+00  0.000E+00  0.000E+00  1.07300E+03  1.064E+00  1.200E+01  7.800E-02  1.355E+00
   1    5    6     2     2    2.0096E+01  2.4333E-01   1.9853E+01  0.000E+00  0.000E+00  0.000E+00  1.06756E+03  1.055E+00  1.200E+01  6.000E-02  1.352E+00
   1    6    6     2     3    1.9853E+01  2.4286E-01   1.9610E+01  0.000E+00  0.000E+00  0.000E+00  1.06284E+03  1.048E+00  1.200E+01  6.000E-02  1.349E+00
   1    7    6     2     4    1.9610E+01  2.4240E-01   1.9368E+01  0.000E+00  0.000E+00  0.000E+00  1.05812E+03  1.040E+00  1.200E+01  6.000E-02  1.347E+00
   1    8    6     2     5    1.9368E+01  2.4193E-01   1.9126E+01  0.000E+00  0.000E+00  0.000E+00  1.05339E+03  1.032E+00  1.200E+01  6.000E-02  1.344E+00
   1    3    5     3     1    2.0000E+00  2.8252E-01   1.7175E+00  0.000E+00  0.000E+00  0.000E+00  1.07555E+03  1.909E+00  9.636E+00  7.227E-02  1.955E+00
   1    3    6     3     2    1.7175E+00  2.4905E-01   1.4684E+00  0.000E+00  0.000E+00  0.000E+00  1.07264E+03  1.727E+00  8.909E+00  6.682E-02  1.864E+00
   1    3    7     3     3    1.4684E+00  1.9718E-01   1.2712E+00  0.000E+00  0.000E+00  0.000E+00  1.06987E+03  1.555E+00  8.218E+00  5.547E-02  1.777E+00
   1    4    8     3     4    1.2712E+00  2.2567E-01   1.0456E+00  0.000E+00  0.000E+00  0.000E+00  1.06682E+03  1.364E+00  7.455E+00  6.709E-02  1.682E+00
   1    5    8     3     5    1.0456E+00  1.5790E-01   8.8768E-01  0.000E+00  0.000E+00  0.000E+00  1.06362E+03  1.164E+00  6.655E+00  4.991E-02  1.582E+00
   1    6    8     3     6    8.8768E-01  5.5980E-02   8.3170E-01  0.000E+00  0.000E+00  0.000E+00  1.06158E+03  1.036E+00  6.145E+00  1.844E-02  1.518E+00
   1    5   10     4     1    1.0000E+01  9.0919E-02   9.9091E+00  0.000E+00  0.000E+00  0.000E+00  1.07836E+03  6.368E-01  1.000E+01  2.500E-02  1.212E+00
   1    5    9     4     2    9.9091E+00  1.8158E-01   9.7275E+00  0.000E+00  0.000E+00  0.000E+00  1.07154E+03  6.315E-01  1.000E+01  5.000E-02  1.211E+00
   1    6    8     4     3    9.7275E+00  1.2689E-01   9.6006E+00  0.000E+00  0.000E+00  0.000E+00  1.06381E+03  6.256E-01  1.000E+01  3.500E-02  1.209E+00
   1    6    8     5     1    1.0432E+01  2.2686E-01   1.0205E+01  0.000E+00  0.000E+00  0.000E+00  1.05868E+03  6.790E-01  1.542E+01  6.166E-02  1.226E+00
   1    7    7     5     2    1.0205E+01  2.7894E-01   9.9265E+00  0.000E+00  0.000E+00  0.000E+00  1.05417E+03  6.732E-01  1.519E+01  7.594E-02  1.224E+00
   1    8    7     5     3    9.9265E+00  1.9221E-01   9.7343E+00  0.000E+00  0.000E+00  0.000E+00  1.04992E+03  6.676E-01  1.497E+01  5.241E-02  1.223E+00
   1    8    6     5     4    9.7343E+00  1.3577E-01   9.5985E+00  0.000E+00  0.000E+00  0.000E+00  1.04691E+03  6.637E-01  1.482E+01  3.706E-02  1.221E+00
   1    9    6     6     1    2.8725E+01  2.5941E-01   2.8465E+01  0.000E+00  0.000E+00  0.000E+00  1.04405E+03  1.324E+00  1.200E+01  6.000E-02  1.441E+00
   1   10    7     6     2    2.8465E+01  2.5898E-01   2.8206E+01  0.000E+00  0.000E+00  0.000E+00  1.03950E+03  1.316E+00  1.200E+01  6.000E-02  1.439E+00
   1   11    7     6     3    2.8206E+01  2.5855E-01   2.7948E+01  0.000E+00  0.000E+00  0.000E+00  1.03495E+03  1.309E+00  1.200E+01  6.000E-02  1.436E+00
   1   12    7     6     4    2.7948E+01  2.5811E-01   2.7689E+01  0.000E+00  0.000E+00  0.000E+00  1.03039E+03  1.302E+00  1.200E+01  6.000E-02  1.434E+00
   1   13    7     6     5    2.7689E+01  1.7891E-02   2.7672E+01  0.000E+00  0.000E+00  0.000E+00  1.02721E+03  1.298E+00  1.200E+01  2.400E-02  2.485E-01
   1   14    9     7     1    1.5000E+02  1.4017E+00   1.4860E+02  0.000E+00  0.000E+00  0.000E+00  1.03987E+03  2.288E+00  5.529E+01  5.593E-01  8.354E-01
   1   13    8     7     2    1.4860E+02  2.0378E+00   1.4656E+02  0.000E+00  0.000E+00  0.000E+00  1.03478E+03  2.278E+00  5.525E+01  6.147E-01  1.105E+00
   1   13    7     7     3    1.4656E+02  1.8011E+00   1.4476E+02  0.000E+00  0.000E+00  0.000E+00  1.02969E+03  2.268E+00  5.521E+01  5.583E-01  1.075E+00
   1   13    6     8     1    1.7243E+02  1.2403E+00   1.7119E+02  0.000E+00  0.000E+00  0.000E+00  1.02484E+03  2.964E+00  4.298E+01  4.380E-01  9.440E-01
   1   13    5     8     2    1.7119E+02  4.5452E-01   1.7074E+02  0.000E+00  0.000E+00  0.000E+00  1.01858E+03  2.958E+00  4.290E+01  4.371E-01  3.466E-01
   1   13    4     8     3    1.7074E+02 -1.5870E+00   1.7232E+02  0.000E+00  0.000E+00  0.000E+00  1.01234E+03  2.962E+00  4.295E+01  4.377E+00 -1.209E-01
   1   13    3     8     4    1.7232E+02 -3.2642E+00   1.7559E+02  0.000E+00  0.000E+00  0.000E+00  1.00610E+03  2.978E+00  4.318E+01  4.400E+00 -2.473E-01
   1   13    2     8     5    1.7559E+02 -2.5393E+00   1.7813E+02  0.000E+00  0.000E+00  0.000E+00  9.99871E+02  2.996E+00  4.345E+01  4.427E+00 -1.912E-01
   1   13    1     8     6    1.7813E+02 -2.0014E+00   1.8013E+02  0.000E+00  0.000E+00  0.000E+00  9.94886E+02  3.011E+00  4.365E+01  2.669E+00 -2.499E-01
   1    8    6     9     1    0.0000E+00  0.0000E+00   0.0000E+00  0.000E+00  0.000E+00  0.000E+00  1.07875E+03  0.000E+00  4.000E+00  0.000E+00  1.000E+00
   1    8    5     9     2    0.0000E+00  0.0000E+00   0.0000E+00  0.000E+00  0.000E+00  0.000E+00  1.07825E+03  0.000E+00  4.000E+00  0.000E+00  1.000E+00





UNSATURATED ZONE PACKAGE VOLUMETRIC BUDGET FOR  TIME STEP    30 STRESS PERIOD   41
  ------------------------------------------------------------------------------



     CUMULATIVE VOLUMES      L**3       RATES FOR THIS TIME STEP      L**3/T
     ------------------                 ------------------------

           IN:                                      IN:
           ---                                      ---
        INFILTRATION =  1763043525.4717          INFILTRATION =           0.8475

          OUT:                                     OUT:
          ----                                     ----
              UZF ET =  1292475553.1180                UZF ET =           0.8475
        UZF RECHARGE =   126435076.4823          UZF RECHARGE =           0.6731

            IN - OUT =   344132895.8713              IN - OUT =          -0.6731

          STORAGE:                                 STORAGE:
          --------                                 --------
      STORAGE CHANGE =   344133146.9411        STORAGE CHANGE =          -0.6731

 PERCENT DISCREPANCY IS DIFFERENCE BETWEEN IN-OUT MINUS CHANGE IN STORAGE
 DIVIDED BY THE AVERAGE OF IN AND OUT TIMES 100

 PERCENT DISCREPANCY =          -0.00     PERCENT DISCREPANCY =           0.00






1
  VOLUMETRIC BUDGET FOR AGRICULTURAL FIELDS AT  END OF TIME STEP   30, STRESS PERIOD  41
  ------------------------------------------------------------------------------

     CUMULATIVE VOLUMES      L**3       RATES FOR THIS TIME STEP      L**3/T
     ------------------                 ------------------------

           IN:                                      IN:
           ---                                      ---
               AG WELLS  =  1086541952.0000                 AG WELLS  =           0.0000
      DIVERSION SEGMENTS =   587377792.0000        DIVERSION SEGMENTS =           0.0000
       IRRIGATION PONDS  =           0.0000         IRRIGATION PONDS  =           0.0000
           GW IRRIGATION =           0.0000             GW IRRIGATION =           0.0000
           SW IRRIGATION =           0.0000             SW IRRIGATION =           0.0000
        SYSTEM LOSSES GW =           0.0000          SYSTEM LOSSES GW =           0.0000
        SYSTEM LOSSES SW =           0.0000          SYSTEM LOSSES SW =           0.0000

                TOTAL IN =  1673919744.0000                  TOTAL IN =           0.0000

          OUT:                                     OUT:
          ----                                     ----
               AG WELLS  =           0.0000                 AG WELLS  =           0.0000
      DIVERSION SEGMENTS =           0.0000        DIVERSION SEGMENTS =           0.0000
       IRRIGATION PONDS  =           0.0000         IRRIGATION PONDS  =           0.0000
           GW IRRIGATION =  1086541952.0000             GW IRRIGATION =           0.0000
           SW IRRIGATION =   587388864.0000             SW IRRIGATION =           0.0000
        SYSTEM LOSSES GW =           0.0000          SYSTEM LOSSES GW =           0.0000
        SYSTEM LOSSES SW =           0.0000          SYSTEM LOSSES SW =           0.0000

               TOTAL OUT =  1673930752.0000                 TOTAL OUT =           0.0000

                IN - OUT =      -11008.0000                  IN - OUT =           0.0000

     PERCENT DISCREPANCY =          -0.00         PERCENT DISCREPANCY =           0.00



1
  VOLUMETRIC BUDGET FOR ENTIRE MODEL AT END OF TIME STEP   30, STRESS PERIOD  41
  ------------------------------------------------------------------------------

     CUMULATIVE VOLUMES      L**3       RATES FOR THIS TIME STEP      L**3/T
     ------------------                 ------------------------

           IN:                                      IN:
           ---                                      ---
             STORAGE     =  1670451712.0000               STORAGE     =           2.0623
       CONSTANT HEAD     =           0.0000         CONSTANT HEAD     =           0.0000
     HEAD DEP BOUNDS     =    30396826.0000       HEAD DEP BOUNDS     =           0.2902
      STREAM LEAKAGE     =  1264363776.0000        STREAM LEAKAGE     =          12.8883
        UZF RECHARGE     =   126435160.0000          UZF RECHARGE     =           0.6731
               GW ET     =           0.0000                 GW ET     =           0.0000
     SURFACE LEAKAGE     =           0.0000       SURFACE LEAKAGE     =           0.0000
           AG WELLS      =           0.0000             AG WELLS      =           0.0000

                TOTAL IN =  3091647232.0000                  TOTAL IN =          15.9139

          OUT:                                     OUT:
          ----                                     ----
             STORAGE     =   943086912.0000               STORAGE     =           6.2311
       CONSTANT HEAD     =           0.0000         CONSTANT HEAD     =           0.0000
     HEAD DEP BOUNDS     =    30300664.0000       HEAD DEP BOUNDS     =           0.2901
      STREAM LEAKAGE     =  1031695616.0000        STREAM LEAKAGE     =           9.3920
        UZF RECHARGE     =           0.0000          UZF RECHARGE     =           0.0000
               GW ET     =           0.0000                 GW ET     =           0.0000
     SURFACE LEAKAGE     =           0.0000       SURFACE LEAKAGE     =           0.0000
           AG WELLS      =  1086541952.0000             AG WELLS      =           0.0000

               TOTAL OUT =  3091624960.0000                 TOTAL OUT =          15.9132

                IN - OUT =       22272.0000                  IN - OUT =       7.1907E-04

     PERCENT DISCREPANCY =           0.00         PERCENT DISCREPANCY =           0.00






         TIME SUMMARY AT END OF TIME STEP   30 IN STRESS PERIOD   41
                    SECONDS     MINUTES      HOURS       DAYS        YEARS
                    -----------------------------------------------------------
   TIME STEP LENGTH  87667.      1461.1      24.352      1.0147     2.77799E-03
 STRESS PERIOD TIME 2.63000E+06  43833.      730.56      30.440     8.33397E-02
         TOTAL TIME 1.05286E+08 1.75476E+06  29246.      1218.6      3.3363    
1
1
                            STRESS PERIOD NO.   42, LENGTH =   2630000.    
                            -----------------------------------------------

                              NUMBER OF TIME STEPS =    30

                               MULTIPLIER FOR DELT =     1.000

                            INITIAL TIME STEP SIZE =   87666.66    

 REUSING NON-PARAMETER GHB CELLS FROM LAST STRESS PERIOD

      2 GHB CELLS

 REUSING STREAM SEGMENT DATA FROM LAST STRESS PERIOD



            AREAL INFILTRATION RATE
 READING ON UNIT   19 WITH FORMAT: (FREE)              

            1           2           3           4           5           6           7           8           9          10
 ........................................................................................................................
   1   1.0000E-10  2.0000E-10   0.000       0.000       0.000       0.000       0.000       0.000       0.000       0.000    
   2   2.0000E-10  1.0000E-10  2.0000E-10   0.000       0.000      8.0000E-10  8.0000E-10  5.0000E-10   0.000       0.000    
   3    0.000      5.0000E-10  1.0000E-10  1.0000E-10  8.0000E-10  8.0000E-10  5.0000E-10  5.0000E-10   0.000       0.000    
   4   8.0000E-10  5.0000E-10  1.0000E-10  1.0000E-10  1.0000E-10  1.0000E-10  1.0000E-10  1.0000E-10  2.0000E-10   0.000    
   5   8.0000E-10  5.0000E-10  1.0000E-10  1.0000E-10  1.0000E-10  1.0000E-10  1.0000E-10  1.0000E-10  1.0000E-10  1.0000E-10
   6   8.0000E-10  5.0000E-10  5.0000E-10  2.0000E-10  2.0000E-10  1.0000E-10  1.0000E-10  1.0000E-10  1.0000E-10  5.0000E-10
   7   8.0000E-10  5.0000E-10  5.0000E-10  2.0000E-10  2.0000E-10  1.0000E-10  1.0000E-10  2.0000E-10  2.0000E-10   0.000    
   8    0.000      5.0000E-10  5.0000E-10  2.0000E-10  2.0000E-10  1.0000E-10  1.0000E-10  2.0000E-10  5.0000E-10   0.000    
   9    0.000      5.0000E-10  5.0000E-10  2.0000E-10  2.0000E-10  1.0000E-10  1.0000E-10  2.0000E-10  5.0000E-10   0.000    
  10    0.000      5.0000E-10  5.0000E-10  2.0000E-10  2.0000E-10  1.0000E-10  1.0000E-10  2.0000E-10  5.0000E-10  8.0000E-10
  11    0.000      1.0000E-10  1.0000E-10  1.0000E-10  1.0000E-10  1.0000E-10  1.0000E-10  2.0000E-10  5.0000E-10   0.000    
  12   1.0000E-10  1.0000E-10  1.0000E-10  1.0000E-10  1.0000E-10  1.0000E-10  1.0000E-10  1.0000E-10  2.0000E-10   0.000    
  13   1.0000E-10  1.0000E-10  2.0000E-10  2.0000E-10  2.0000E-10  2.0000E-10  2.0000E-10  1.0000E-10  1.0000E-10   0.000    
  14    0.000      2.0000E-10  5.0000E-10  5.0000E-10  5.0000E-10  5.0000E-10  5.0000E-10  2.0000E-10  1.0000E-10   0.000    
  15    0.000       0.000      8.0000E-10  8.0000E-10  8.0000E-10  8.0000E-10   0.000       0.000       0.000       0.000    

                  ET RATE =  5.000000E-08

 USING ET EXTINCTION DEPTH FROM PREVIOUS STRESS PERIOD. CURRENT PERIOD IS:      42

 USING EXTINCTION WATER CONTENT FROM PREVIOUS STRESS PERIOD. CURRENT PERIOD IS:      42

 USING AIR ENTRY PRESSURE FROM PREVIOUS STRESS PERIOD. CURRENT PERIOD IS:      42

 USING ROOT PRESSURE HEAD FROM PREVIOUS STRESS PERIOD. CURRENT PERIOD IS:      42

 USING ROOT ACTIVITY FROM PREVIOUS STRESS PERIOD. CURRENT PERIOD IS:      42

 PROCESSING AG STRESS PERIOD DATA

 READING AG STRESS PERIOD DATA

 READING IRRIGATION SEGMENT

 READING IRRIGATION WELL

 READING SUPPLEMENTAL WELL

 NO IRRPOND OR REUSING IRRPOND DATA FROM LAST STRESS PERIOD

 END PROCESSING AG STRESS PERIOD DATA OPTIONS
 
 SOLVING FOR HEAD 
                                                   Max.-Head-Change                         Max.-Flux-Residual
  Residual-Control   Outer-Iter.   Inner-Iter.     Column Row Layer    Maximum-Head-Change  Column Row Layer    Maximum-Flux-Residual          L2-NORM 
          0                 1           2             3    7     1       0.6959148697E-02       4   13    1        -0.2666252591E+00      0.1145588392E+01
          0                 2           2             4    7     1      -0.2243952187E-01       5    8    1        -0.1211722999E+01      0.2972901535E+01
          0                 3           2             4    7     1       0.2212404716E-01       5    8    1         0.1233325236E+01      0.3008495216E+01
          0                 4           2             4    7     1       0.9774376879E-03       4    7    1         0.5420426452E-01      0.1173075568E+00
          0                 5           2             4    7     1       0.1912455897E-03       4    7    1         0.1060909594E-01      0.2273548423E-01
          0                 6           1             4    7     1       0.3739564770E-04       4    7    1         0.2075148740E-02      0.4406235416E-02

    ------------------------------------------------
       NWT REQUIRED            6 OUTER ITERATIONS 
       AND A TOTAL OF         11 INNER ITERATIONS.
    ------------------------------------------------

 NO OUTPUT CONTROL FOR STRESS PERIOD   42   TIME STEP    1
 
 SOLVING FOR HEAD 
                                                   Max.-Head-Change                         Max.-Flux-Residual
  Residual-Control   Outer-Iter.   Inner-Iter.     Column Row Layer    Maximum-Head-Change  Column Row Layer    Maximum-Flux-Residual          L2-NORM 
          0                 1           2             3    7     1       0.6926567471E-02       4    7    1         0.2637505728E+00      0.1052987018E+01
          0                 2           2             4    7     1       0.7608306714E-03       4    7    1         0.4008329544E-01      0.1247038724E+00
          0                 3           1             4    7     1       0.1141981372E-03       4    7    1         0.5980795514E-02      0.1427185600E-01
          0                 4           1             4    7     1       0.1712663132E-04       4    7    1         0.8997230598E-03      0.1934651949E-02

    ------------------------------------------------
       NWT REQUIRED            4 OUTER ITERATIONS 
       AND A TOTAL OF          6 INNER ITERATIONS.
    ------------------------------------------------

 NO OUTPUT CONTROL FOR STRESS PERIOD   42   TIME STEP    2
 
 SOLVING FOR HEAD 
                                                   Max.-Head-Change                         Max.-Flux-Residual
  Residual-Control   Outer-Iter.   Inner-Iter.     Column Row Layer    Maximum-Head-Change  Column Row Layer    Maximum-Flux-Residual          L2-NORM 
          0                 1           2             3    7     1       0.6894137250E-02       4    7    1         0.2624137444E+00      0.1049010382E+01
          0                 2           2             4    7     1      -0.2244699156E-01       5    8    1        -0.1212051147E+01      0.2977364823E+01
          0                 3           2             4    7     1       0.2213667298E-01       5    8    1         0.1233893649E+01      0.3010032940E+01
          0                 4           2             4    7     1       0.9660176036E-03       4    7    1         0.5357058970E-01      0.1159489293E+00
          0                 5           2             4    7     1       0.1890112173E-03       4    7    1         0.1048508185E-01      0.2247117957E-01
          0                 6           1             4    7     1       0.3696037253E-04       4    7    1         0.2050982652E-02      0.4355187920E-02

    ------------------------------------------------
       NWT REQUIRED            6 OUTER ITERATIONS 
       AND A TOTAL OF         11 INNER ITERATIONS.
    ------------------------------------------------

 NO OUTPUT CONTROL FOR STRESS PERIOD   42   TIME STEP    3
 
 SOLVING FOR HEAD 
                                                   Max.-Head-Change                         Max.-Flux-Residual
  Residual-Control   Outer-Iter.   Inner-Iter.     Column Row Layer    Maximum-Head-Change  Column Row Layer    Maximum-Flux-Residual          L2-NORM 
          0                 1           2             3    7     1       0.6861974826E-02       4    7    1         0.2610946987E+00      0.1043593517E+01
          0                 2           2             4    7     1       0.7531993511E-03       4    7    1         0.3968089899E-01      0.1235774193E+00
          0                 3           2             4    7     1      -0.2306087829E-01       5    8    1        -0.1239677474E+01      0.3050143697E+01
          0                 4           2             4    7     1       0.2199405481E-01       5    8    1         0.1227513579E+01      0.2992728100E+01
          0                 5           2             4    7     1       0.9650863720E-03       4    7    1         0.5351809309E-01      0.1158303879E+00
          0                 6           2             4    7     1       0.1888331822E-03       4    7    1         0.1047516851E-01      0.2245228699E-01
          0                 7           1             4    7     1       0.3692291175E-04       4    7    1         0.2048893147E-02      0.4351125987E-02

    ------------------------------------------------
       NWT REQUIRED            7 OUTER ITERATIONS 
       AND A TOTAL OF         13 INNER ITERATIONS.
    ------------------------------------------------

 NO OUTPUT CONTROL FOR STRESS PERIOD   42   TIME STEP    4
 
 SOLVING FOR HEAD 
                                                   Max.-Head-Change                         Max.-Flux-Residual
  Residual-Control   Outer-Iter.   Inner-Iter.     Column Row Layer    Maximum-Head-Change  Column Row Layer    Maximum-Flux-Residual          L2-NORM 
          0                 1           2             3    7     1       0.6829896763E-02       4    7    1         0.2597887870E+00      0.1039145259E+01
          0                 2           2             4    7     1       0.7494484111E-03       4    7    1         0.3948307512E-01      0.1230377903E+00
          0                 3           2             4    7     1      -0.2306154325E-01       5    8    1        -0.1239706826E+01      0.3050234502E+01
          0                 4           2             4    7     1       0.2200101969E-01       5    8    1         0.1227825623E+01      0.2993555207E+01
          0                 5           2             4    7     1       0.9594892289E-03       4    7    1         0.5320746851E-01      0.1151649192E+00
          0                 6           2             4    7     1       0.1877361269E-03       4    7    1         0.1041426960E-01      0.2232290171E-01
          0                 7           1             4    7     1       0.3670852480E-04       4    7    1         0.2036989179E-02      0.4326044444E-02

    ------------------------------------------------
       NWT REQUIRED            7 OUTER ITERATIONS 
       AND A TOTAL OF         13 INNER ITERATIONS.
    ------------------------------------------------

 NO OUTPUT CONTROL FOR STRESS PERIOD   42   TIME STEP    5
 
 SOLVING FOR HEAD 
                                                   Max.-Head-Change                         Max.-Flux-Residual
  Residual-Control   Outer-Iter.   Inner-Iter.     Column Row Layer    Maximum-Head-Change  Column Row Layer    Maximum-Flux-Residual          L2-NORM 
          0                 1           2             3    7     1       0.6798145989E-02       4    7    1         0.2584887219E+00      0.1035468121E+01
          0                 2           2             4    7     1       0.7457140865E-03       4    7    1         0.3928614062E-01      0.1225613900E+00
          0                 3           2             4    7     1      -0.2306220610E-01       5    8    1        -0.1239735879E+01      0.3050324195E+01
          0                 4           2             4    7     1       0.2200795457E-01       5    8    1         0.1228133217E+01      0.2994392991E+01
          0                 5           2             4    7     1       0.9539108931E-03       4    7    1         0.5289790601E-01      0.1145048642E+00
          0                 6           2             4    7     1       0.1866484482E-03       4    7    1         0.1035389192E-01      0.2219512751E-01
          0                 7           1             4    7     1       0.3650316872E-04       4    7    1         0.2025584288E-02      0.4302242471E-02

    ------------------------------------------------
       NWT REQUIRED            7 OUTER ITERATIONS 
       AND A TOTAL OF         13 INNER ITERATIONS.
    ------------------------------------------------

 NO OUTPUT CONTROL FOR STRESS PERIOD   42   TIME STEP    6
 
 SOLVING FOR HEAD 
                                                   Max.-Head-Change                         Max.-Flux-Residual
  Residual-Control   Outer-Iter.   Inner-Iter.     Column Row Layer    Maximum-Head-Change  Column Row Layer    Maximum-Flux-Residual          L2-NORM 
          0                 1           2             3    7     1       0.6766716447E-02       4    7    1         0.2571943785E+00      0.1032402978E+01
          0                 2           2             4    7     1       0.7419997968E-03       4    7    1         0.3909020387E-01      0.1221355811E+00
          0                 3           2             4    7     1      -0.2306286134E-01       5    8    1        -0.1239764511E+01      0.3050411994E+01
          0                 4           2             4    7     1       0.2201484935E-01       5    8    1         0.1228438277E+01      0.2995228624E+01
          0                 5           2             4    7     1       0.9483642137E-03       4    7    1         0.5258999488E-01      0.1138520977E+00
          0                 6           2             4    7     1       0.1855644930E-03       4    7    1         0.1029370311E-01      0.2206833652E-01
          0                 7           1             4    7     1       0.3628421443E-04       4    7    1         0.2013425834E-02      0.4276692908E-02

    ------------------------------------------------
       NWT REQUIRED            7 OUTER ITERATIONS 
       AND A TOTAL OF         13 INNER ITERATIONS.
    ------------------------------------------------

 NO OUTPUT CONTROL FOR STRESS PERIOD   42   TIME STEP    7
 
 SOLVING FOR HEAD 
                                                   Max.-Head-Change                         Max.-Flux-Residual
  Residual-Control   Outer-Iter.   Inner-Iter.     Column Row Layer    Maximum-Head-Change  Column Row Layer    Maximum-Flux-Residual          L2-NORM 
          0                 1           2             3    7     1       0.6735360935E-02       4    7    1         0.2559136667E+00      0.1029810614E+01
          0                 2           2             4    7     1       0.7383212719E-03       4    7    1         0.3889619984E-01      0.1217487178E+00
          0                 3           2             4    7     1      -0.2306351134E-01       5    8    1        -0.1239792821E+01      0.3050498343E+01
          0                 4           2             4    7     1       0.2202167757E-01       5    8    1         0.1228738926E+01      0.2996034978E+01
          0                 5           2             4    7     1       0.9428723691E-03       4    7    1         0.5228521459E-01      0.1132024082E+00
          0                 6           2             4    7     1       0.1844909148E-03       4    7    1         0.1023410581E-01      0.2194238511E-01
          0                 7           1             4    7     1       0.3608162290E-04       4    7    1         0.2002174037E-02      0.4253244432E-02

    ------------------------------------------------
       NWT REQUIRED            7 OUTER ITERATIONS 
       AND A TOTAL OF         13 INNER ITERATIONS.
    ------------------------------------------------

 NO OUTPUT CONTROL FOR STRESS PERIOD   42   TIME STEP    8
 
 SOLVING FOR HEAD 
                                                   Max.-Head-Change                         Max.-Flux-Residual
  Residual-Control   Outer-Iter.   Inner-Iter.     Column Row Layer    Maximum-Head-Change  Column Row Layer    Maximum-Flux-Residual          L2-NORM 
          0                 1           2             3    7     1       0.6704081554E-02       4    7    1         0.2546458766E+00      0.1027598131E+01
          0                 2           2             4    7     1       0.7346806020E-03       4    7    1         0.3870415839E-01      0.1213947517E+00
          0                 3           2             4    7     1      -0.2306415295E-01       5    8    1        -0.1239820659E+01      0.3050582403E+01
          0                 4           2             4    7     1       0.2202843541E-01       5    8    1         0.1229035183E+01      0.2996829551E+01
          0                 5           2             4    7     1       0.9374390963E-03       4    7    1         0.5198363905E-01      0.1125623559E+00
          0                 6           2             4    7     1       0.1834260928E-03       4    7    1         0.1017498704E-01      0.2181790911E-01
          0                 7           1             4    7     1       0.3586637703E-04       4    7    1         0.1990222853E-02      0.4228142915E-02

    ------------------------------------------------
       NWT REQUIRED            7 OUTER ITERATIONS 
       AND A TOTAL OF         13 INNER ITERATIONS.
    ------------------------------------------------

 NO OUTPUT CONTROL FOR STRESS PERIOD   42   TIME STEP    9
 
 SOLVING FOR HEAD 
                                                   Max.-Head-Change                         Max.-Flux-Residual
  Residual-Control   Outer-Iter.   Inner-Iter.     Column Row Layer    Maximum-Head-Change  Column Row Layer    Maximum-Flux-Residual          L2-NORM 
          0                 1           2             3    7     1       0.6673121014E-02       4    7    1         0.2533837539E+00      0.1025673143E+01
          0                 2           2             4    7     1       0.7310584106E-03       4    7    1         0.3851306791E-01      0.1210650746E+00
          0                 3           2             4    7     1      -0.2306479233E-01       5    8    1        -0.1239848364E+01      0.3050665783E+01
          0                 4           2             4    7     1       0.2203515808E-01       5    8    1         0.1229329161E+01      0.2997617854E+01
          0                 5           2             4    7     1       0.9320285518E-03       4    7    1         0.5168328048E-01      0.1119266320E+00
          0                 6           2             4    7     1       0.1823716496E-03       4    7    1         0.1011643464E-01      0.2169504709E-01
          0                 7           1             4    7     1       0.3566039706E-04       4    7    1         0.1978782055E-02      0.4204322971E-02

    ------------------------------------------------
       NWT REQUIRED            7 OUTER ITERATIONS 
       AND A TOTAL OF         13 INNER ITERATIONS.
    ------------------------------------------------

 NO OUTPUT CONTROL FOR STRESS PERIOD   42   TIME STEP   10
 
 SOLVING FOR HEAD 
                                                   Max.-Head-Change                         Max.-Flux-Residual
  Residual-Control   Outer-Iter.   Inner-Iter.     Column Row Layer    Maximum-Head-Change  Column Row Layer    Maximum-Flux-Residual          L2-NORM 
          0                 1           2             3    7     1       0.6642472873E-02       4    7    1         0.2521348612E+00      0.1023957219E+01
          0                 2           2             4    7     1       0.7274724801E-03       4    7    1         0.3832392616E-01      0.1207537385E+00
          0                 3           2             4    7     1      -0.2306542465E-01       5    8    1        -0.1239875659E+01      0.3050747367E+01
          0                 4           2             4    7     1       0.2204181362E-01       5    8    1         0.1229618834E+01      0.2998400074E+01
          0                 5           2             4    7     1       0.9266770898E-03       4    7    1         0.5138626007E-01      0.1112963911E+00
          0                 6           2             4    7     1       0.1813213245E-03       4    7    1         0.1005812360E-01      0.2157227642E-01
          0                 7           1             4    7     1       0.3546093006E-04       4    7    1         0.1967703317E-02      0.4181296369E-02

    ------------------------------------------------
       NWT REQUIRED            7 OUTER ITERATIONS 
       AND A TOTAL OF         13 INNER ITERATIONS.
    ------------------------------------------------

 NO OUTPUT CONTROL FOR STRESS PERIOD   42   TIME STEP   11
 
 SOLVING FOR HEAD 
                                                   Max.-Head-Change                         Max.-Flux-Residual
  Residual-Control   Outer-Iter.   Inner-Iter.     Column Row Layer    Maximum-Head-Change  Column Row Layer    Maximum-Flux-Residual          L2-NORM 
          0                 1           2             3    7     1       0.6611891642E-02       4    7    1         0.2508913930E+00      0.1022399876E+01
          0                 2           2             4    7     1       0.7239049026E-03       4    7    1         0.3813568794E-01      0.1204572425E+00
          0                 3           2             4    7     1      -0.2306605128E-01       5    8    1        -0.1239902495E+01      0.3050827942E+01
          0                 4           2             4    7     1       0.2204843348E-01       5    8    1         0.1229904209E+01      0.2999172565E+01
          0                 5           2             4    7     1       0.9213541275E-03       4    7    1         0.5109071818E-01      0.1106739473E+00
          0                 6           2             4    7     1       0.1802741042E-03       4    7    1         0.9999967114E-02      0.2145062553E-01
          0                 7           1             4    7     1       0.3526214068E-04       4    7    1         0.1956658980E-02      0.4158486180E-02

    ------------------------------------------------
       NWT REQUIRED            7 OUTER ITERATIONS 
       AND A TOTAL OF         13 INNER ITERATIONS.
    ------------------------------------------------

 NO OUTPUT CONTROL FOR STRESS PERIOD   42   TIME STEP   12
 
 SOLVING FOR HEAD 
                                                   Max.-Head-Change                         Max.-Flux-Residual
  Residual-Control   Outer-Iter.   Inner-Iter.     Column Row Layer    Maximum-Head-Change  Column Row Layer    Maximum-Flux-Residual          L2-NORM 
          0                 1           2             3    7     1       0.6581619453E-02       4    7    1         0.2496611784E+00      0.1020953788E+01
          0                 2           2             4    7     1       0.7203729290E-03       4    7    1         0.3794938175E-01      0.1201710248E+00
          0                 3           2             4    7     1      -0.2306667352E-01       5    8    1        -0.1239929226E+01      0.3050906340E+01
          0                 4           2             4    7     1       0.2205498989E-01       5    8    1         0.1230187810E+01      0.2999940352E+01
          0                 5           2             4    7     1       0.9160718596E-03       4    7    1         0.5079752931E-01      0.1100536810E+00
          0                 6           2             4    7     1       0.1792531824E-03       4    7    1         0.9943281515E-02      0.2133191906E-01
          0                 7           1             4    7     1       0.3505117221E-04       4    7    1         0.1944945892E-02      0.4133921645E-02

    ------------------------------------------------
       NWT REQUIRED            7 OUTER ITERATIONS 
       AND A TOTAL OF         13 INNER ITERATIONS.
    ------------------------------------------------

 NO OUTPUT CONTROL FOR STRESS PERIOD   42   TIME STEP   13
 
 SOLVING FOR HEAD 
                                                   Max.-Head-Change                         Max.-Flux-Residual
  Residual-Control   Outer-Iter.   Inner-Iter.     Column Row Layer    Maximum-Head-Change  Column Row Layer    Maximum-Flux-Residual          L2-NORM 
          0                 1           2             3    7     1       0.6551409376E-02       4    7    1         0.2484362431E+00      0.1019581934E+01
          0                 2           2             4    7     1       0.7168588851E-03       4    7    1         0.3776395689E-01      0.1198929074E+00
          0                 3           2             4    7     1      -0.2306729013E-01       5    8    1        -0.1239955506E+01      0.3050983891E+01
          0                 4           2             4    7     1       0.2206150851E-01       5    8    1         0.1230467057E+01      0.3000701853E+01
          0                 5           2             4    7     1       0.9108284130E-03       4    7    1         0.5050638873E-01      0.1094426955E+00
          0                 6           2             4    7     1       0.1782258778E-03       4    7    1         0.9886226823E-02      0.2121303334E-01
          0                 7           1             4    7     1       0.3485773037E-04       4    7    1         0.1934197287E-02      0.4111838810E-02

    ------------------------------------------------
       NWT REQUIRED            7 OUTER ITERATIONS 
       AND A TOTAL OF         13 INNER ITERATIONS.
    ------------------------------------------------

 NO OUTPUT CONTROL FOR STRESS PERIOD   42   TIME STEP   14
 
 SOLVING FOR HEAD 
                                                   Max.-Head-Change                         Max.-Flux-Residual
  Residual-Control   Outer-Iter.   Inner-Iter.     Column Row Layer    Maximum-Head-Change  Column Row Layer    Maximum-Flux-Residual          L2-NORM 
          0                 1           2             3    7     1       0.6521503688E-02       4    7    1         0.2472244101E+00      0.1018253755E+01
          0                 2           2             4    7     1       0.7133812922E-03       4    7    1         0.3758048107E-01      0.1196195656E+00
          0                 3           2             4    7     1      -0.2306789963E-01       5    8    1        -0.1239981550E+01      0.3051060339E+01
          0                 4           2             4    7     1       0.2206795982E-01       5    8    1         0.1230744484E+01      0.3001454255E+01
          0                 5           2             4    7     1       0.9056354954E-03       4    7    1         0.5021809768E-01      0.1088354883E+00
          0                 6           2             4    7     1       0.1772097087E-03       4    7    1         0.9829798098E-02      0.2109511189E-01
          0                 7           1             4    7     1       0.3465779498E-04       4    7    1         0.1923092341E-02      0.4088781587E-02

    ------------------------------------------------
       NWT REQUIRED            7 OUTER ITERATIONS 
       AND A TOTAL OF         13 INNER ITERATIONS.
    ------------------------------------------------

 NO OUTPUT CONTROL FOR STRESS PERIOD   42   TIME STEP   15
 
 SOLVING FOR HEAD 
                                                   Max.-Head-Change                         Max.-Flux-Residual
  Residual-Control   Outer-Iter.   Inner-Iter.     Column Row Layer    Maximum-Head-Change  Column Row Layer    Maximum-Flux-Residual          L2-NORM 
          0                 1           2             3    7     1       0.6491656627E-02       4    7    1         0.2460179779E+00      0.1016945771E+01
          0                 2           2             4    7     1       0.7099209853E-03       4    7    1         0.3739789091E-01      0.1193494678E+00
          0                 3           2             4    7     1      -0.2306850929E-01       5    8    1        -0.1240007446E+01      0.3051136089E+01
          0                 4           2             4    7     1       0.2207438325E-01       5    8    1         0.1231018066E+01      0.3002201875E+01
          0                 5           2             4    7     1       0.9004641053E-03       4    7    1         0.4993096385E-01      0.1082328094E+00
          0                 6           2             4    7     1       0.1762036585E-03       4    7    1         0.9773922389E-02      0.2097882665E-01
          0                 7           1             4    7     1       0.3445843307E-04       4    7    1         0.1912018079E-02      0.4065847243E-02

    ------------------------------------------------
       NWT REQUIRED            7 OUTER ITERATIONS 
       AND A TOTAL OF         13 INNER ITERATIONS.
    ------------------------------------------------

 NO OUTPUT CONTROL FOR STRESS PERIOD   42   TIME STEP   16
 
 SOLVING FOR HEAD 
                                                   Max.-Head-Change                         Max.-Flux-Residual
  Residual-Control   Outer-Iter.   Inner-Iter.     Column Row Layer    Maximum-Head-Change  Column Row Layer    Maximum-Flux-Residual          L2-NORM 
          0                 1           2             3    7     1       0.6462111608E-02       4    7    1         0.2448244080E+00      0.1015656945E+01
          0                 2           2             4    7     1       0.7064954197E-03       4    7    1         0.3721715170E-01      0.1190826306E+00
          0                 3           2             4    7     1      -0.2306910844E-01       5    8    1        -0.1240032781E+01      0.3051210316E+01
          0                 4           2             4    7     1       0.2208073652E-01       5    8    1         0.1231287601E+01      0.3002939685E+01
          0                 5           2             4    7     1       0.8953525192E-03       4    7    1         0.4964717854E-01      0.1076375026E+00
          0                 6           2             4    7     1       0.1752019893E-03       4    7    1         0.9718297124E-02      0.2086300946E-01
          0                 7           1             4    7     1       0.3426277887E-04       4    7    1         0.1901150019E-02      0.4043390819E-02

    ------------------------------------------------
       NWT REQUIRED            7 OUTER ITERATIONS 
       AND A TOTAL OF         13 INNER ITERATIONS.
    ------------------------------------------------

 NO OUTPUT CONTROL FOR STRESS PERIOD   42   TIME STEP   17
 
 SOLVING FOR HEAD 
                                                   Max.-Head-Change                         Max.-Flux-Residual
  Residual-Control   Outer-Iter.   Inner-Iter.     Column Row Layer    Maximum-Head-Change  Column Row Layer    Maximum-Flux-Residual          L2-NORM 
          0                 1           2             3    7     1       0.6432622431E-02       4    7    1         0.2436433837E+00      0.1014350986E+01
          0                 2           2             4    7     1       0.7031064066E-03       4    7    1         0.3703833196E-01      0.1188162725E+00
          0                 3           2             4    7     1      -0.2306970506E-01       5    8    1        -0.1240058130E+01      0.3051283852E+01
          0                 4           2             4    7     1       0.2208702643E-01       5    8    1         0.1231555709E+01      0.3003671115E+01
          0                 5           2             4    7     1       0.8902887457E-03       4    7    1         0.4936604485E-01      0.1070469646E+00
          0                 6           2             4    7     1       0.1742154278E-03       4    7    1         0.9663508678E-02      0.2074889838E-01
          0                 7           1             4    7     1       0.3406720431E-04       4    7    1         0.1890287030E-02      0.4020878021E-02

    ------------------------------------------------
       NWT REQUIRED            7 OUTER ITERATIONS 
       AND A TOTAL OF         13 INNER ITERATIONS.
    ------------------------------------------------

 NO OUTPUT CONTROL FOR STRESS PERIOD   42   TIME STEP   18
 
 SOLVING FOR HEAD 
                                                   Max.-Head-Change                         Max.-Flux-Residual
  Residual-Control   Outer-Iter.   Inner-Iter.     Column Row Layer    Maximum-Head-Change  Column Row Layer    Maximum-Flux-Residual          L2-NORM 
          0                 1           2             3    7     1       0.6403431554E-02       4    7    1         0.2424674190E+00      0.1013032111E+01
          0                 2           2             4    7     1       0.6997339864E-03       4    7    1         0.3686035988E-01      0.1185506908E+00
          0                 3           2             4    7     1      -0.2307029497E-01       5    8    1        -0.1240082831E+01      0.3051355761E+01
          0                 4           2             4    7     1       0.2209328388E-01       5    8    1         0.1231817752E+01      0.3004394290E+01
          0                 5           2             4    7     1       0.8852534424E-03       4    7    1         0.4908643922E-01      0.1064632808E+00
          0                 6           2             4    7     1       0.1732288871E-03       4    7    1         0.9608713416E-02      0.2063532983E-01
          0                 7           1             4    7     1       0.3387742522E-04       4    7    1         0.1879742461E-02      0.3999244678E-02

    ------------------------------------------------
       NWT REQUIRED            7 OUTER ITERATIONS 
       AND A TOTAL OF         13 INNER ITERATIONS.
    ------------------------------------------------

 NO OUTPUT CONTROL FOR STRESS PERIOD   42   TIME STEP   19
 
 SOLVING FOR HEAD 
                                                   Max.-Head-Change                         Max.-Flux-Residual
  Residual-Control   Outer-Iter.   Inner-Iter.     Column Row Layer    Maximum-Head-Change  Column Row Layer    Maximum-Flux-Residual          L2-NORM 
          0                 1           2             3    7     1       0.6374532484E-02       4    7    1         0.2412967823E+00      0.1011686205E+01
          0                 2           2             4    7     1       0.6963771945E-03       4    7    1         0.3668320777E-01      0.1182836832E+00
          0                 3           2             4    7     1      -0.2307088231E-01       5    8    1        -0.1240107576E+01      0.3051427272E+01
          0                 4           2             4    7     1       0.2209951108E-01       5    8    1         0.1232080597E+01      0.3005114238E+01
          0                 5           2             4    7     1       0.8802399803E-03       4    7    1         0.4880803166E-01      0.1058819240E+00
          0                 6           2             4    7     1       0.1722495472E-03       4    7    1         0.9554314680E-02      0.2052260529E-01
          0                 7           1             4    7     1       0.3368618581E-04       4    7    1         0.1869117222E-02      0.3977392073E-02

    ------------------------------------------------
       NWT REQUIRED            7 OUTER ITERATIONS 
       AND A TOTAL OF         13 INNER ITERATIONS.
    ------------------------------------------------

 NO OUTPUT CONTROL FOR STRESS PERIOD   42   TIME STEP   20
 
 SOLVING FOR HEAD 
                                                   Max.-Head-Change                         Max.-Flux-Residual
  Residual-Control   Outer-Iter.   Inner-Iter.     Column Row Layer    Maximum-Head-Change  Column Row Layer    Maximum-Flux-Residual          L2-NORM 
          0                 1           2             3    7     1       0.6345681274E-02       4    7    1         0.2401461924E+00      0.1010319582E+01
          0                 2           2             4    7     1       0.6930752201E-03       4    7    1         0.3650897412E-01      0.1180177470E+00
          0                 3           2             4    7     1      -0.2307145936E-01       5    8    1        -0.1240131772E+01      0.3051497526E+01
          0                 4           2             4    7     1       0.2210563346E-01       5    8    1         0.1232337476E+01      0.3005822818E+01
          0                 5           2             4    7     1       0.8753078485E-03       4    7    1         0.4853420261E-01      0.1053092594E+00
          0                 6           2             4    7     1       0.1712887356E-03       4    7    1         0.9500954858E-02      0.2041194472E-01
          0                 7           1             4    7     1       0.3349852760E-04       4    7    1         0.1858692601E-02      0.3955932734E-02

    ------------------------------------------------
       NWT REQUIRED            7 OUTER ITERATIONS 
       AND A TOTAL OF         13 INNER ITERATIONS.
    ------------------------------------------------

 NO OUTPUT CONTROL FOR STRESS PERIOD   42   TIME STEP   21
 
 SOLVING FOR HEAD 
                                                   Max.-Head-Change                         Max.-Flux-Residual
  Residual-Control   Outer-Iter.   Inner-Iter.     Column Row Layer    Maximum-Head-Change  Column Row Layer    Maximum-Flux-Residual          L2-NORM 
          0                 1           2             3    7     1       0.6317120096E-02       4    7    1         0.2389929958E+00      0.1008911636E+01
          0                 2           2             4    7     1       0.6897706055E-03       4    7    1         0.3633454176E-01      0.1177494575E+00
          0                 3           2             4    7     1      -0.2307203734E-01       5    8    1        -0.1240155904E+01      0.3051566849E+01
          0                 4           2             4    7     1       0.2211176463E-01       5    8    1         0.1232593208E+01      0.3006528555E+01
          0                 5           2             4    7     1       0.8703737576E-03       4    7    1         0.4826015109E-01      0.1047395443E+00
          0                 6           2             4    7     1       0.1703222289E-03       4    7    1         0.9447260540E-02      0.2030109176E-01
          0                 7           1             4    7     1       0.3330982789E-04       4    7    1         0.1848206934E-02      0.3934435302E-02

    ------------------------------------------------
       NWT REQUIRED            7 OUTER ITERATIONS 
       AND A TOTAL OF         13 INNER ITERATIONS.
    ------------------------------------------------

 NO OUTPUT CONTROL FOR STRESS PERIOD   42   TIME STEP   22
 
 SOLVING FOR HEAD 
                                                   Max.-Head-Change                         Max.-Flux-Residual
  Residual-Control   Outer-Iter.   Inner-Iter.     Column Row Layer    Maximum-Head-Change  Column Row Layer    Maximum-Flux-Residual          L2-NORM 
          0                 1           2             3    7     1       0.6288603739E-02       4    7    1         0.2378599171E+00      0.1007470523E+01
          0                 2           2             4    7     1       0.6865170891E-03       4    7    1         0.3616288862E-01      0.1174782754E+00
          0                 3           2             4    7     1      -0.2307260498E-01       5    8    1        -0.1240179635E+01      0.3051636369E+01
          0                 4           2             4    7     1       0.2211779831E-01       5    8    1         0.1232845592E+01      0.3007227827E+01
          0                 5           2             4    7     1       0.8655198411E-03       4    7    1         0.4799070600E-01      0.1041751417E+00
          0                 6           2             4    7     1       0.1693693382E-03       4    7    1         0.9394350339E-02      0.2019106643E-01
          0                 7           1             4    7     1       0.3312799735E-04       4    7    1         0.1838106287E-02      0.3913682604E-02

    ------------------------------------------------
       NWT REQUIRED            7 OUTER ITERATIONS 
       AND A TOTAL OF         13 INNER ITERATIONS.
    ------------------------------------------------

 NO OUTPUT CONTROL FOR STRESS PERIOD   42   TIME STEP   23
 
 SOLVING FOR HEAD 
                                                   Max.-Head-Change                         Max.-Flux-Residual
  Residual-Control   Outer-Iter.   Inner-Iter.     Column Row Layer    Maximum-Head-Change  Column Row Layer    Maximum-Flux-Residual          L2-NORM 
          0                 1           2             3    7     1       0.6260375426E-02       4    7    1         0.2367310971E+00      0.1005993922E+01
          0                 2           2             4    7     1       0.6832797679E-03       4    7    1         0.3599203475E-01      0.1172091531E+00
          0                 3           2             4    7     1      -0.2307317280E-01       5    8    1        -0.1240203410E+01      0.3051703343E+01
          0                 4           2             4    7     1       0.2212380382E-01       5    8    1         0.1233096794E+01      0.3007920744E+01
          0                 5           2             4    7     1       0.8606859798E-03       4    7    1         0.4772227650E-01      0.1036156053E+00
          0                 6           2             4    7     1       0.1684250691E-03       4    7    1         0.9341900195E-02      0.2008257036E-01
          0                 7           1             4    7     1       0.3294360486E-04       4    7    1         0.1827861509E-02      0.3892645006E-02

    ------------------------------------------------
       NWT REQUIRED            7 OUTER ITERATIONS 
       AND A TOTAL OF         13 INNER ITERATIONS.
    ------------------------------------------------

 NO OUTPUT CONTROL FOR STRESS PERIOD   42   TIME STEP   24
 
 SOLVING FOR HEAD 
                                                   Max.-Head-Change                         Max.-Flux-Residual
  Residual-Control   Outer-Iter.   Inner-Iter.     Column Row Layer    Maximum-Head-Change  Column Row Layer    Maximum-Flux-Residual          L2-NORM 
          0                 1           2             3    7     1       0.6232187303E-02       4    7    1         0.2356071007E+00      0.1004479013E+01
          0                 2           2             4    7     1       0.6800574369E-03       4    7    1         0.3582194648E-01      0.1169366306E+00
          0                 3           2             4    7     1      -0.2307373391E-01       5    8    1        -0.1240226706E+01      0.3051770067E+01
          0                 4           2             4    7     1       0.2212977918E-01       5    8    1         0.1233344510E+01      0.3008607145E+01
          0                 5           2             4    7     1       0.8558658317E-03       4    7    1         0.4745457391E-01      0.1030598611E+00
          0                 6           2             4    7     1       0.1674908197E-03       4    7    1         0.9289997645E-02      0.1997577304E-01
          0                 7           1             4    7     1       0.3275400824E-04       4    7    1         0.1817328467E-02      0.3870966191E-02

    ------------------------------------------------
       NWT REQUIRED            7 OUTER ITERATIONS 
       AND A TOTAL OF         13 INNER ITERATIONS.
    ------------------------------------------------

 NO OUTPUT CONTROL FOR STRESS PERIOD   42   TIME STEP   25
 
 SOLVING FOR HEAD 
                                                   Max.-Head-Change                         Max.-Flux-Residual
  Residual-Control   Outer-Iter.   Inner-Iter.     Column Row Layer    Maximum-Head-Change  Column Row Layer    Maximum-Flux-Residual          L2-NORM 
          0                 1           2             3    7     1       0.6204284531E-02       4    7    1         0.2344953869E+00      0.1002936029E+01
          0                 2           2             4    7     1       0.6768697255E-03       4    7    1         0.3565369545E-01      0.1166635754E+00
          0                 3           2             4    7     1      -0.2307429005E-01       5    8    1        -0.1240249770E+01      0.3051836150E+01
          0                 4           2             4    7     1       0.2213569123E-01       5    8    1         0.1233589060E+01      0.3009286485E+01
          0                 5           2             4    7     1       0.8511076458E-03       4    7    1         0.4719032654E-01      0.1025112361E+00
          0                 6           2             4    7     1       0.1665585412E-03       4    7    1         0.9238210509E-02      0.1986899762E-01
          0                 7           1             4    7     1       0.3257197048E-04       4    7    1         0.1807213916E-02      0.3850261084E-02

    ------------------------------------------------
       NWT REQUIRED            7 OUTER ITERATIONS 
       AND A TOTAL OF         13 INNER ITERATIONS.
    ------------------------------------------------

 NO OUTPUT CONTROL FOR STRESS PERIOD   42   TIME STEP   26
 
 SOLVING FOR HEAD 
                                                   Max.-Head-Change                         Max.-Flux-Residual
  Residual-Control   Outer-Iter.   Inner-Iter.     Column Row Layer    Maximum-Head-Change  Column Row Layer    Maximum-Flux-Residual          L2-NORM 
          0                 1           2             3    7     1       0.6176661073E-02       4    7    1         0.2333957135E+00      0.1001359255E+01
          0                 2           2             4    7     1       0.6737161369E-03       4    7    1         0.3548725739E-01      0.1163894680E+00
          0                 3           2             4    7     1      -0.2307484157E-01       5    8    1        -0.1240272617E+01      0.3051901474E+01
          0                 4           2             4    7     1       0.2214154130E-01       5    8    1         0.1233830524E+01      0.3009959945E+01
          0                 5           2             4    7     1       0.8463944558E-03       4    7    1         0.4692860036E-01      0.1019667030E+00
          0                 6           2             4    7     1       0.1656407195E-03       4    7    1         0.9187228574E-02      0.1976379214E-01
          0                 7           1             4    7     1       0.3239562689E-04       4    7    1         0.1797415072E-02      0.3830248488E-02

    ------------------------------------------------
       NWT REQUIRED            7 OUTER ITERATIONS 
       AND A TOTAL OF         13 INNER ITERATIONS.
    ------------------------------------------------

 NO OUTPUT CONTROL FOR STRESS PERIOD   42   TIME STEP   27
 
 SOLVING FOR HEAD 
                                                   Max.-Head-Change                         Max.-Flux-Residual
  Residual-Control   Outer-Iter.   Inner-Iter.     Column Row Layer    Maximum-Head-Change  Column Row Layer    Maximum-Flux-Residual          L2-NORM 
          0                 1           2             3    7     1       0.6149072154E-02       4    7    1         0.2323005063E+00      0.9997434840E+00
          0                 2           2             4    7     1       0.6705759452E-03       4    7    1         0.3532150193E-01      0.1161129231E+00
          0                 3           2             4    7     1      -0.2307538829E-01       5    8    1        -0.1240295256E+01      0.3051966146E+01
          0                 4           2             4    7     1       0.2214736407E-01       5    8    1         0.1234071097E+01      0.3010628670E+01
          0                 5           2             4    7     1       0.8417118118E-03       4    7    1         0.4666853019E-01      0.1014275044E+00
          0                 6           2             4    7     1       0.1647189495E-03       4    7    1         0.9136023405E-02      0.1965825905E-01
          0                 7           1             4    7     1       0.3221996683E-04       4    7    1         0.1787653008E-02      0.3810366396E-02

    ------------------------------------------------
       NWT REQUIRED            7 OUTER ITERATIONS 
       AND A TOTAL OF         13 INNER ITERATIONS.
    ------------------------------------------------

 NO OUTPUT CONTROL FOR STRESS PERIOD   42   TIME STEP   28
 
 SOLVING FOR HEAD 
                                                   Max.-Head-Change                         Max.-Flux-Residual
  Residual-Control   Outer-Iter.   Inner-Iter.     Column Row Layer    Maximum-Head-Change  Column Row Layer    Maximum-Flux-Residual          L2-NORM 
          0                 1           2             3    7     1       0.6121761693E-02       4    7    1         0.2312172268E+00      0.9981049557E+00
          0                 2           2             4    7     1       0.6674702683E-03       4    7    1         0.3515756653E-01      0.1158367513E+00
          0                 3           2             4    7     1      -0.2307592805E-01       5    8    1        -0.1240317562E+01      0.3052029434E+01
          0                 4           2             4    7     1       0.2215312205E-01       5    8    1         0.1234308477E+01      0.3011289125E+01
          0                 5           2             4    7     1       0.8370687994E-03       4    7    1         0.4641066333E-01      0.1008929251E+00
          0                 6           2             4    7     1       0.1638164285E-03       4    7    1         0.9085883947E-02      0.1955517527E-01
          0                 7           1             4    7     1       0.3203656307E-04       4    7    1         0.1777464170E-02      0.3789408593E-02

    ------------------------------------------------
       NWT REQUIRED            7 OUTER ITERATIONS 
       AND A TOTAL OF         13 INNER ITERATIONS.
    ------------------------------------------------

 NO OUTPUT CONTROL FOR STRESS PERIOD   42   TIME STEP   29
 
 SOLVING FOR HEAD 
                                                   Max.-Head-Change                         Max.-Flux-Residual
  Residual-Control   Outer-Iter.   Inner-Iter.     Column Row Layer    Maximum-Head-Change  Column Row Layer    Maximum-Flux-Residual          L2-NORM 
          0                 1           2             3    7     1       0.6094483703E-02       4    7    1         0.2301457527E+00      0.9964341641E+00
          0                 2           2             4    7     1       0.6643960118E-03       4    7    1         0.3499532418E-01      0.1155587483E+00
          0                 3           2             4    7     1      -0.2307646344E-01       5    8    1        -0.1240339662E+01      0.3052092649E+01
          0                 4           2             4    7     1       0.2215882206E-01       5    8    1         0.1234542979E+01      0.3011945740E+01
          0                 5           2             4    7     1       0.8324749412E-03       4    7    1         0.4615559351E-01      0.1003617384E+00
          0                 6           2             4    7     1       0.1629218031E-03       4    7    1         0.9036195623E-02      0.1945255710E-01
          0                 7           1             4    7     1       0.3186184961E-04       4    7    1         0.1767757828E-02      0.3769508094E-02

    ------------------------------------------------
       NWT REQUIRED            7 OUTER ITERATIONS 
       AND A TOTAL OF         13 INNER ITERATIONS.
    ------------------------------------------------

 NO OUTPUT CONTROL FOR STRESS PERIOD   42   TIME STEP   30



 STREAM LISTING     PERIOD     42   STEP       30

 LAYER ROW COL. STREAM  RCH.  FLOW INTO     FLOW TO   FLOW OUT OF   OVRLND.     DIRECT     STREAM       STREAM     STREAM     STREAM   STREAMBED  STREAMBED
                SEG.NO.  NO.  STRM. RCH.    AQUIFER    STRM. RCH.    RUNOFF     PRECIP       ET          HEAD       DEPTH      WIDTH   CONDCTNC.   GRADIENT

   1    1    1     1     1    2.3624E+01  2.3872E-01   2.3386E+01  0.000E+00  0.000E+00  0.000E+00  1.09421E+03  1.157E+00  1.276E+01  5.742E-02  1.386E+00
   1    2    2     1     2    2.3386E+01  3.6908E-01   2.3016E+01  0.000E+00  0.000E+00  0.000E+00  1.08921E+03  1.153E+00  1.270E+01  8.888E-02  1.384E+00
   1    3    3     1     3    2.3016E+01  3.1417E-01   2.2702E+01  0.000E+00  0.000E+00  0.000E+00  1.08357E+03  1.147E+00  1.263E+01  7.575E-02  1.382E+00
   1    3    4     1     4    2.2702E+01  2.8881E-01   2.2414E+01  0.000E+00  0.000E+00  0.000E+00  1.07855E+03  1.143E+00  1.256E+01  6.972E-02  1.381E+00
   1    4    5     2     1    2.0414E+01  3.1702E-01   2.0096E+01  0.000E+00  0.000E+00  0.000E+00  1.07300E+03  1.064E+00  1.200E+01  7.800E-02  1.355E+00
   1    5    6     2     2    2.0096E+01  2.4333E-01   1.9853E+01  0.000E+00  0.000E+00  0.000E+00  1.06756E+03  1.055E+00  1.200E+01  6.000E-02  1.352E+00
   1    6    6     2     3    1.9853E+01  2.4286E-01   1.9610E+01  0.000E+00  0.000E+00  0.000E+00  1.06284E+03  1.048E+00  1.200E+01  6.000E-02  1.349E+00
   1    7    6     2     4    1.9610E+01  2.4240E-01   1.9368E+01  0.000E+00  0.000E+00  0.000E+00  1.05812E+03  1.040E+00  1.200E+01  6.000E-02  1.347E+00
   1    8    6     2     5    1.9368E+01  2.4193E-01   1.9126E+01  0.000E+00  0.000E+00  0.000E+00  1.05339E+03  1.032E+00  1.200E+01  6.000E-02  1.344E+00
   1    3    5     3     1    2.0000E+00  2.8252E-01   1.7175E+00  0.000E+00  0.000E+00  0.000E+00  1.07555E+03  1.909E+00  9.636E+00  7.227E-02  1.955E+00
   1    3    6     3     2    1.7175E+00  2.4905E-01   1.4684E+00  0.000E+00  0.000E+00  0.000E+00  1.07264E+03  1.727E+00  8.909E+00  6.682E-02  1.864E+00
   1    3    7     3     3    1.4684E+00  1.9718E-01   1.2712E+00  0.000E+00  0.000E+00  0.000E+00  1.06987E+03  1.555E+00  8.218E+00  5.547E-02  1.777E+00
   1    4    8     3     4    1.2712E+00  2.2567E-01   1.0456E+00  0.000E+00  0.000E+00  0.000E+00  1.06682E+03  1.364E+00  7.455E+00  6.709E-02  1.682E+00
   1    5    8     3     5    1.0456E+00  1.5790E-01   8.8768E-01  0.000E+00  0.000E+00  0.000E+00  1.06362E+03  1.164E+00  6.655E+00  4.991E-02  1.582E+00
   1    6    8     3     6    8.8768E-01  5.5980E-02   8.3170E-01  0.000E+00  0.000E+00  0.000E+00  1.06158E+03  1.036E+00  6.145E+00  1.844E-02  1.518E+00
   1    5   10     4     1    1.0000E+01  9.0919E-02   9.9091E+00  0.000E+00  0.000E+00  0.000E+00  1.07836E+03  6.368E-01  1.000E+01  2.500E-02  1.212E+00
   1    5    9     4     2    9.9091E+00  1.8158E-01   9.7275E+00  0.000E+00  0.000E+00  0.000E+00  1.07154E+03  6.315E-01  1.000E+01  5.000E-02  1.211E+00
   1    6    8     4     3    9.7275E+00  1.2689E-01   9.6006E+00  0.000E+00  0.000E+00  0.000E+00  1.06381E+03  6.256E-01  1.000E+01  3.500E-02  1.209E+00
   1    6    8     5     1    1.0432E+01  2.2686E-01   1.0205E+01  0.000E+00  0.000E+00  0.000E+00  1.05868E+03  6.790E-01  1.542E+01  6.166E-02  1.226E+00
   1    7    7     5     2    1.0205E+01  2.7894E-01   9.9265E+00  0.000E+00  0.000E+00  0.000E+00  1.05417E+03  6.732E-01  1.519E+01  7.594E-02  1.224E+00
   1    8    7     5     3    9.9265E+00  1.9221E-01   9.7343E+00  0.000E+00  0.000E+00  0.000E+00  1.04992E+03  6.676E-01  1.497E+01  5.241E-02  1.223E+00
   1    8    6     5     4    9.7343E+00  1.3577E-01   9.5985E+00  0.000E+00  0.000E+00  0.000E+00  1.04691E+03  6.637E-01  1.482E+01  3.706E-02  1.221E+00
   1    9    6     6     1    2.1258E+01  2.4624E-01   2.1011E+01  0.000E+00  0.000E+00  0.000E+00  1.04383E+03  1.104E+00  1.200E+01  6.000E-02  1.368E+00
   1   10    7     6     2    2.1011E+01  2.4578E-01   2.0766E+01  0.000E+00  0.000E+00  0.000E+00  1.03928E+03  1.096E+00  1.200E+01  6.000E-02  1.365E+00
   1   11    7     6     3    2.0766E+01  2.4531E-01   2.0520E+01  0.000E+00  0.000E+00  0.000E+00  1.03472E+03  1.089E+00  1.200E+01  6.000E-02  1.363E+00
   1   12    7     6     4    2.0520E+01  2.4484E-01   2.0275E+01  0.000E+00  0.000E+00  0.000E+00  1.03017E+03  1.081E+00  1.200E+01  6.000E-02  1.360E+00
   1   13    7     6     5    2.0275E+01  1.2783E-02   2.0263E+01  0.000E+00  0.000E+00  0.000E+00  1.02699E+03  1.077E+00  1.200E+01  2.400E-02  1.775E-01
   1   14    9     7     1    1.5000E+02  1.4031E+00   1.4860E+02  0.000E+00  0.000E+00  0.000E+00  1.03987E+03  2.288E+00  5.529E+01  5.593E-01  8.362E-01
   1   13    8     7     2    1.4860E+02  2.0407E+00   1.4656E+02  0.000E+00  0.000E+00  0.000E+00  1.03478E+03  2.278E+00  5.525E+01  6.147E-01  1.107E+00
   1   13    7     7     3    1.4656E+02  1.8059E+00   1.4475E+02  0.000E+00  0.000E+00  0.000E+00  1.02969E+03  2.268E+00  5.521E+01  5.583E-01  1.078E+00
   1   13    6     8     1    1.6501E+02  1.2085E+00   1.6380E+02  0.000E+00  0.000E+00  0.000E+00  1.02479E+03  2.915E+00  4.227E+01  4.308E-01  9.351E-01
   1   13    5     8     2    1.6380E+02  4.3500E-01   1.6337E+02  0.000E+00  0.000E+00  0.000E+00  1.01853E+03  2.910E+00  4.219E+01  4.300E-01  3.372E-01
   1   13    4     8     3    1.6337E+02 -1.5771E+00   1.6495E+02  0.000E+00  0.000E+00  0.000E+00  1.01229E+03  2.914E+00  4.225E+01  4.305E+00 -1.221E-01
   1   13    3     8     4    1.6495E+02 -3.2294E+00   1.6818E+02  0.000E+00  0.000E+00  0.000E+00  1.00605E+03  2.930E+00  4.248E+01  4.329E+00 -2.487E-01
   1   13    2     8     5    1.6818E+02 -2.4902E+00   1.7067E+02  0.000E+00  0.000E+00  0.000E+00  9.99823E+02  2.948E+00  4.275E+01  4.357E+00 -1.905E-01
   1   13    1     8     6    1.7067E+02 -1.9847E+00   1.7265E+02  0.000E+00  0.000E+00  0.000E+00  9.94838E+02  2.963E+00  4.296E+01  2.627E+00 -2.518E-01
   1    8    6     9     1    7.4669E+00  0.0000E+00   7.4669E+00  0.000E+00  0.000E+00  0.000E+00  1.08065E+03  1.902E+00  4.000E+00  0.000E+00  1.634E+00
   1    8    5     9     2    7.4669E+00  0.0000E+00   7.4669E+00  0.000E+00  0.000E+00  0.000E+00  1.08015E+03  1.902E+00  4.000E+00  0.000E+00  1.634E+00





UNSATURATED ZONE PACKAGE VOLUMETRIC BUDGET FOR  TIME STEP    30 STRESS PERIOD   42
  ------------------------------------------------------------------------------



     CUMULATIVE VOLUMES      L**3       RATES FOR THIS TIME STEP      L**3/T
     ------------------                 ------------------------

           IN:                                      IN:
           ---                                      ---
        INFILTRATION =  1784913158.3870          INFILTRATION =           8.3145

          OUT:                                     OUT:
          ----                                     ----
              UZF ET =  1314351331.7601                UZF ET =           8.3175
        UZF RECHARGE =   128126054.9296          UZF RECHARGE =           0.6176

            IN - OUT =   342435771.6973              IN - OUT =          -0.6206

          STORAGE:                                 STORAGE:
          --------                                 --------
      STORAGE CHANGE =   342436021.0610        STORAGE CHANGE =          -0.6206

 PERCENT DISCREPANCY IS DIFFERENCE BETWEEN IN-OUT MINUS CHANGE IN STORAGE
 DIVIDED BY THE AVERAGE OF IN AND OUT TIMES 100

 PERCENT DISCREPANCY =          -0.00     PERCENT DISCREPANCY =           0.00






1
  VOLUMETRIC BUDGET FOR AGRICULTURAL FIELDS AT  END OF TIME STEP   30, STRESS PERIOD  42
  ------------------------------------------------------------------------------

     CUMULATIVE VOLUMES      L**3       RATES FOR THIS TIME STEP      L**3/T
     ------------------                 ------------------------

           IN:                                      IN:
           ---                                      ---
               AG WELLS  =  1086541952.0000                 AG WELLS  =       2.3842E-06
      DIVERSION SEGMENTS =   607018112.0000        DIVERSION SEGMENTS =           7.4669
       IRRIGATION PONDS  =           0.0000         IRRIGATION PONDS  =           0.0000
           GW IRRIGATION =           0.0000             GW IRRIGATION =           0.0000
           SW IRRIGATION =           0.0000             SW IRRIGATION =           0.0000
        SYSTEM LOSSES GW =           0.0000          SYSTEM LOSSES GW =           0.0000
        SYSTEM LOSSES SW =           0.0000          SYSTEM LOSSES SW =           0.0000

                TOTAL IN =  1693560064.0000                  TOTAL IN =           7.4669

          OUT:                                     OUT:
          ----                                     ----
               AG WELLS  =           0.0000                 AG WELLS  =           0.0000
      DIVERSION SEGMENTS =           0.0000        DIVERSION SEGMENTS =           0.0000
       IRRIGATION PONDS  =           0.0000         IRRIGATION PONDS  =           0.0000
           GW IRRIGATION =  1086541952.0000             GW IRRIGATION =       2.3842E-06
           SW IRRIGATION =   607029568.0000             SW IRRIGATION =           7.4670
        SYSTEM LOSSES GW =           0.0000          SYSTEM LOSSES GW =           0.0000
        SYSTEM LOSSES SW =           0.0000          SYSTEM LOSSES SW =           0.0000

               TOTAL OUT =  1693571584.0000                 TOTAL OUT =           7.4670

                IN - OUT =      -11520.0000                  IN - OUT =      -1.4877E-04

     PERCENT DISCREPANCY =          -0.00         PERCENT DISCREPANCY =          -0.00



1
  VOLUMETRIC BUDGET FOR ENTIRE MODEL AT END OF TIME STEP   30, STRESS PERIOD  42
  ------------------------------------------------------------------------------

     CUMULATIVE VOLUMES      L**3       RATES FOR THIS TIME STEP      L**3/T
     ------------------                 ------------------------

           IN:                                      IN:
           ---                                      ---
             STORAGE     =  1675872000.0000               STORAGE     =           1.6974
       CONSTANT HEAD     =           0.0000         CONSTANT HEAD     =           0.0000
     HEAD DEP BOUNDS     =    31160296.0000       HEAD DEP BOUNDS     =           0.2903
      STREAM LEAKAGE     =  1297962752.0000        STREAM LEAKAGE     =          12.7878
        UZF RECHARGE     =   128126128.0000          UZF RECHARGE     =           0.6176
               GW ET     =           0.0000                 GW ET     =           0.0000
     SURFACE LEAKAGE     =           0.0000       SURFACE LEAKAGE     =           0.0000
           AG WELLS      =           0.0000             AG WELLS      =           0.0000

                TOTAL IN =  3133121280.0000                  TOTAL IN =          15.3932

          OUT:                                     OUT:
          ----                                     ----
             STORAGE     =   958828160.0000               STORAGE     =           5.8216
       CONSTANT HEAD     =           0.0000         CONSTANT HEAD     =           0.0000
     HEAD DEP BOUNDS     =    31061144.0000       HEAD DEP BOUNDS     =           0.2886
      STREAM LEAKAGE     =  1056662784.0000        STREAM LEAKAGE     =           9.2813
        UZF RECHARGE     =           0.0000          UZF RECHARGE     =           0.0000
               GW ET     =           0.0000                 GW ET     =           0.0000
     SURFACE LEAKAGE     =           0.0000       SURFACE LEAKAGE     =           0.0000
           AG WELLS      =  1086541952.0000             AG WELLS      =       2.3842E-06

               TOTAL OUT =  3133093888.0000                 TOTAL OUT =          15.3914

                IN - OUT =       27392.0000                  IN - OUT =       1.7853E-03

     PERCENT DISCREPANCY =           0.00         PERCENT DISCREPANCY =           0.01






         TIME SUMMARY AT END OF TIME STEP   30 IN STRESS PERIOD   42
                    SECONDS     MINUTES      HOURS       DAYS        YEARS
                    -----------------------------------------------------------
   TIME STEP LENGTH  87667.      1461.1      24.352      1.0147     2.77799E-03
 STRESS PERIOD TIME 2.63000E+06  43833.      730.56      30.440     8.33397E-02
         TOTAL TIME 1.07916E+08 1.79859E+06  29977.      1249.0      3.4196    
1
1
                            STRESS PERIOD NO.   43, LENGTH =   2630000.    
                            -----------------------------------------------

                              NUMBER OF TIME STEPS =    30

                               MULTIPLIER FOR DELT =     1.000

                            INITIAL TIME STEP SIZE =   87666.66    

 REUSING NON-PARAMETER GHB CELLS FROM LAST STRESS PERIOD

      2 GHB CELLS

 REUSING STREAM SEGMENT DATA FROM LAST STRESS PERIOD



            AREAL INFILTRATION RATE
 READING ON UNIT   19 WITH FORMAT: (FREE)              

            1           2           3           4           5           6           7           8           9          10
 ........................................................................................................................
   1   1.0000E-10  2.0000E-10   0.000       0.000       0.000       0.000       0.000       0.000       0.000       0.000    
   2   2.0000E-10  1.0000E-10  2.0000E-10   0.000       0.000      8.0000E-10  8.0000E-10  5.0000E-10   0.000       0.000    
   3    0.000      5.0000E-10  1.0000E-10  1.0000E-10  8.0000E-10  8.0000E-10  5.0000E-10  5.0000E-10   0.000       0.000    
   4   8.0000E-10  5.0000E-10  1.0000E-10  1.0000E-10  1.0000E-10  1.0000E-10  1.0000E-10  1.0000E-10  2.0000E-10   0.000    
   5   8.0000E-10  5.0000E-10  1.0000E-10  1.0000E-10  1.0000E-10  1.0000E-10  1.0000E-10  1.0000E-10  1.0000E-10  1.0000E-10
   6   8.0000E-10  5.0000E-10  5.0000E-10  2.0000E-10  2.0000E-10  1.0000E-10  1.0000E-10  1.0000E-10  1.0000E-10  5.0000E-10
   7   8.0000E-10  5.0000E-10  5.0000E-10  2.0000E-10  2.0000E-10  1.0000E-10  1.0000E-10  2.0000E-10  2.0000E-10   0.000    
   8    0.000      5.0000E-10  5.0000E-10  2.0000E-10  2.0000E-10  1.0000E-10  1.0000E-10  2.0000E-10  5.0000E-10   0.000    
   9    0.000      5.0000E-10  5.0000E-10  2.0000E-10  2.0000E-10  1.0000E-10  1.0000E-10  2.0000E-10  5.0000E-10   0.000    
  10    0.000      5.0000E-10  5.0000E-10  2.0000E-10  2.0000E-10  1.0000E-10  1.0000E-10  2.0000E-10  5.0000E-10  8.0000E-10
  11    0.000      1.0000E-10  1.0000E-10  1.0000E-10  1.0000E-10  1.0000E-10  1.0000E-10  2.0000E-10  5.0000E-10   0.000    
  12   1.0000E-10  1.0000E-10  1.0000E-10  1.0000E-10  1.0000E-10  1.0000E-10  1.0000E-10  1.0000E-10  2.0000E-10   0.000    
  13   1.0000E-10  1.0000E-10  2.0000E-10  2.0000E-10  2.0000E-10  2.0000E-10  2.0000E-10  1.0000E-10  1.0000E-10   0.000    
  14    0.000      2.0000E-10  5.0000E-10  5.0000E-10  5.0000E-10  5.0000E-10  5.0000E-10  2.0000E-10  1.0000E-10   0.000    
  15    0.000       0.000      8.0000E-10  8.0000E-10  8.0000E-10  8.0000E-10   0.000       0.000       0.000       0.000    

                  ET RATE =  1.500000E-07

 USING ET EXTINCTION DEPTH FROM PREVIOUS STRESS PERIOD. CURRENT PERIOD IS:      43

 USING EXTINCTION WATER CONTENT FROM PREVIOUS STRESS PERIOD. CURRENT PERIOD IS:      43

 USING AIR ENTRY PRESSURE FROM PREVIOUS STRESS PERIOD. CURRENT PERIOD IS:      43

 USING ROOT PRESSURE HEAD FROM PREVIOUS STRESS PERIOD. CURRENT PERIOD IS:      43

 USING ROOT ACTIVITY FROM PREVIOUS STRESS PERIOD. CURRENT PERIOD IS:      43

 PROCESSING AG STRESS PERIOD DATA

 READING AG STRESS PERIOD DATA

 READING IRRIGATION SEGMENT

 READING IRRIGATION WELL

 READING SUPPLEMENTAL WELL

 NO IRRPOND OR REUSING IRRPOND DATA FROM LAST STRESS PERIOD

 END PROCESSING AG STRESS PERIOD DATA OPTIONS
 
 SOLVING FOR HEAD 
                                                   Max.-Head-Change                         Max.-Flux-Residual
  Residual-Control   Outer-Iter.   Inner-Iter.     Column Row Layer    Maximum-Head-Change  Column Row Layer    Maximum-Flux-Residual          L2-NORM 
          0                 1           2             3    7     1       0.6067480673E-02       4   13    1        -0.2993617464E+00      0.1088750239E+01
          0                 2           2             4    7     1      -0.5550178253E-01       5    8    1        -0.2986064675E+01      0.7308875519E+01
          0                 3           2             5    8     1       0.2111614787E-02       5    8    1         0.1195037359E+00      0.2822617783E+00
          0                 4           1             5    8     1      -0.8402329175E-04       5    8    1        -0.4887720251E-02      0.1154443047E-01

    ------------------------------------------------
       NWT REQUIRED            4 OUTER ITERATIONS 
       AND A TOTAL OF          7 INNER ITERATIONS.
    ------------------------------------------------

 NO OUTPUT CONTROL FOR STRESS PERIOD   43   TIME STEP    1
 
 SOLVING FOR HEAD 
                                                   Max.-Head-Change                         Max.-Flux-Residual
  Residual-Control   Outer-Iter.   Inner-Iter.     Column Row Layer    Maximum-Head-Change  Column Row Layer    Maximum-Flux-Residual          L2-NORM 
          0                 1           2             3    7     1       0.5465606043E-02       5    8    1         0.2366268094E+00      0.9386611992E+00
          0                 2           2             3    7     1      -0.5316549303E-03       5    8    1        -0.2366273879E-01      0.9373202679E-01
          0                 3           1             3    7     1       0.3620376056E-04       5    8    1         0.1656413324E-02      0.6549244782E-02

    ------------------------------------------------
       NWT REQUIRED            3 OUTER ITERATIONS 
       AND A TOTAL OF          5 INNER ITERATIONS.
    ------------------------------------------------

 NO OUTPUT CONTROL FOR STRESS PERIOD   43   TIME STEP    2
 
 SOLVING FOR HEAD 
                                                   Max.-Head-Change                         Max.-Flux-Residual
  Residual-Control   Outer-Iter.   Inner-Iter.     Column Row Layer    Maximum-Head-Change  Column Row Layer    Maximum-Flux-Residual          L2-NORM 
          0                 1           2             3    7     1       0.5430815163E-02       5    8    1         0.2334371013E+00      0.9319493949E+00
          0                 2           2             4    7     1      -0.7012079830E-01       5    8    1        -0.3768343868E+01      0.9255822024E+01
          0                 3           2             4    7     1       0.5705482571E-01       5    6    1         0.3149827847E+01      0.7715412776E+01
          0                 4           2             4    7     1      -0.2270318836E-02       5    8    1        -0.1288347211E+00      0.3155704605E+00
          0                 5           1             4    7     1       0.2799392783E-04       5    8    1         0.1632722073E-02      0.3999271614E-02

    ------------------------------------------------
       NWT REQUIRED            5 OUTER ITERATIONS 
       AND A TOTAL OF          9 INNER ITERATIONS.
    ------------------------------------------------

 NO OUTPUT CONTROL FOR STRESS PERIOD   43   TIME STEP    3
 
 SOLVING FOR HEAD 
                                                   Max.-Head-Change                         Max.-Flux-Residual
  Residual-Control   Outer-Iter.   Inner-Iter.     Column Row Layer    Maximum-Head-Change  Column Row Layer    Maximum-Flux-Residual          L2-NORM 
          0                 1           2             3    7     1       0.5240534104E-02       5    8    1         0.2551590724E+00      0.9471809650E+00
          0                 2           2             4    7     1      -0.1531383721E-01       5    8    1        -0.8266578135E+00      0.2033487418E+01
          0                 3           2             4    7     1      -0.3847131199E-01       4    7    1        -0.2066000984E+01      0.5083765219E+01
          0                 4           2             4    7     1       0.4038792377E-01       4    7    1         0.2229543542E+01      0.5461312427E+01
          0                 5           2             4    7     1      -0.1607481410E-02       4    8    1        -0.9121413621E-01      0.2234257434E+00
          0                 6           1             4    7     1       0.1983561427E-04       4    8    1         0.1156815089E-02      0.2833615272E-02

    ------------------------------------------------
       NWT REQUIRED            6 OUTER ITERATIONS 
       AND A TOTAL OF         11 INNER ITERATIONS.
    ------------------------------------------------

 NO OUTPUT CONTROL FOR STRESS PERIOD   43   TIME STEP    4
 
 SOLVING FOR HEAD 
                                                   Max.-Head-Change                         Max.-Flux-Residual
  Residual-Control   Outer-Iter.   Inner-Iter.     Column Row Layer    Maximum-Head-Change  Column Row Layer    Maximum-Flux-Residual          L2-NORM 
          0                 1           2             5    8     1       0.5193230952E-02       5    8    1         0.2751294361E+00      0.9647082482E+00
          0                 2           2             4    7     1      -0.1561464120E-01       5    8    1        -0.8442077417E+00      0.2075527697E+01
          0                 3           2             4    7     1      -0.3796306643E-01       4    7    1        -0.2038708207E+01      0.5016732071E+01
          0                 4           2             4    7     1       0.4007158480E-01       4    7    1         0.2212079816E+01      0.5418524388E+01
          0                 5           2             4    7     1      -0.1594890580E-02       4    8    1        -0.9049948175E-01      0.2216752209E+00
          0                 6           1             4    7     1       0.1968024904E-04       4    8    1         0.1147751602E-02      0.2811414241E-02

    ------------------------------------------------
       NWT REQUIRED            6 OUTER ITERATIONS 
       AND A TOTAL OF         11 INNER ITERATIONS.
    ------------------------------------------------

 NO OUTPUT CONTROL FOR STRESS PERIOD   43   TIME STEP    5
 
 SOLVING FOR HEAD 
                                                   Max.-Head-Change                         Max.-Flux-Residual
  Residual-Control   Outer-Iter.   Inner-Iter.     Column Row Layer    Maximum-Head-Change  Column Row Layer    Maximum-Flux-Residual          L2-NORM 
          0                 1           2             5    8     1       0.5539744396E-02       5    8    1         0.2941558982E+00      0.9841219947E+00
          0                 2           2             4    7     1      -0.1583986046E-01       5    8    1        -0.8575801231E+00      0.2107406868E+01
          0                 3           2             4    7     1      -0.3758995413E-01       4    7    1        -0.2018672196E+01      0.4967502928E+01
          0                 4           2             4    7     1       0.3983841845E-01       4    7    1         0.2199207460E+01      0.5386983886E+01
          0                 5           2             4    7     1      -0.1585610164E-02       4    8    1        -0.8997268903E-01      0.2203848577E+00
          0                 6           1             4    7     1       0.1956573274E-04       4    8    1         0.1141070649E-02      0.2795049884E-02

    ------------------------------------------------
       NWT REQUIRED            6 OUTER ITERATIONS 
       AND A TOTAL OF         11 INNER ITERATIONS.
    ------------------------------------------------

 NO OUTPUT CONTROL FOR STRESS PERIOD   43   TIME STEP    6
 
 SOLVING FOR HEAD 
                                                   Max.-Head-Change                         Max.-Flux-Residual
  Residual-Control   Outer-Iter.   Inner-Iter.     Column Row Layer    Maximum-Head-Change  Column Row Layer    Maximum-Flux-Residual          L2-NORM 
          0                 1           2             5    8     1       0.5869883089E-02       5    8    1         0.3122692516E+00      0.1004880159E+01
          0                 2           2             4    7     1      -0.1600835998E-01       5    8    1        -0.8677937000E+00      0.2131622578E+01
          0                 3           2             4    7     1      -0.3731741930E-01       4    7    1        -0.2004037236E+01      0.4931527318E+01
          0                 4           2             4    7     1       0.3966766943E-01       4    7    1         0.2189780718E+01      0.5363884321E+01
          0                 5           2             4    7     1      -0.1578814065E-02       4    8    1        -0.8958688044E-01      0.2194398085E+00
          0                 6           1             4    7     1       0.1948187273E-04       4    8    1         0.1136177688E-02      0.2783062609E-02

    ------------------------------------------------
       NWT REQUIRED            6 OUTER ITERATIONS 
       AND A TOTAL OF         11 INNER ITERATIONS.
    ------------------------------------------------

 NO OUTPUT CONTROL FOR STRESS PERIOD   43   TIME STEP    7
 
 SOLVING FOR HEAD 
                                                   Max.-Head-Change                         Max.-Flux-Residual
  Residual-Control   Outer-Iter.   Inner-Iter.     Column Row Layer    Maximum-Head-Change  Column Row Layer    Maximum-Flux-Residual          L2-NORM 
          0                 1           2             5    8     1       0.6184402151E-02       5    8    1         0.3295121330E+00      0.1026547521E+01
          0                 2           2             4    7     1      -0.1613482260E-01       5    8    1        -0.8756435109E+00      0.2150121741E+01
          0                 3           2             4    7     1      -0.3711904487E-01       4    7    1        -0.1993384682E+01      0.4905324695E+01
          0                 4           2             4    7     1       0.3954321380E-01       4    7    1         0.2182909497E+01      0.5347045270E+01
          0                 5           2             4    7     1      -0.1573860521E-02       4    8    1        -0.8930563843E-01      0.2187509002E+00
          0                 6           1             4    7     1       0.1942074791E-04       4    8    1         0.1132610911E-02      0.2774331209E-02

    ------------------------------------------------
       NWT REQUIRED            6 OUTER ITERATIONS 
       AND A TOTAL OF         11 INNER ITERATIONS.
    ------------------------------------------------

 NO OUTPUT CONTROL FOR STRESS PERIOD   43   TIME STEP    8
 
 SOLVING FOR HEAD 
                                                   Max.-Head-Change                         Max.-Flux-Residual
  Residual-Control   Outer-Iter.   Inner-Iter.     Column Row Layer    Maximum-Head-Change  Column Row Layer    Maximum-Flux-Residual          L2-NORM 
          0                 1           2             5    8     1       0.6483683278E-02       5    8    1         0.3459069273E+00      0.1048762769E+01
          0                 2           2             4    7     1      -0.1623035447E-01       5    8    1        -0.8817323706E+00      0.2164381594E+01
          0                 3           2             4    7     1      -0.3697498061E-01       4    7    1        -0.1985648548E+01      0.4886282068E+01
          0                 4           2             4    7     1       0.3945281699E-01       4    7    1         0.2177918414E+01      0.5334812387E+01
          0                 5           2             4    7     1      -0.1570262576E-02       4    8    1        -0.8910132977E-01      0.2182504344E+00
          0                 6           1             4    7     1       0.1937635087E-04       4    8    1         0.1130019790E-02      0.2767985038E-02

    ------------------------------------------------
       NWT REQUIRED            6 OUTER ITERATIONS 
       AND A TOTAL OF         11 INNER ITERATIONS.
    ------------------------------------------------

 NO OUTPUT CONTROL FOR STRESS PERIOD   43   TIME STEP    9
 
 SOLVING FOR HEAD 
                                                   Max.-Head-Change                         Max.-Flux-Residual
  Residual-Control   Outer-Iter.   Inner-Iter.     Column Row Layer    Maximum-Head-Change  Column Row Layer    Maximum-Flux-Residual          L2-NORM 
          0                 1           2             5    8     1       0.6768735548E-02       5    8    1         0.3615102612E+00      0.1071252382E+01
          0                 2           2             4    7     1      -0.1630333262E-01       5    8    1        -0.8865167913E+00      0.2175515167E+01
          0                 3           2             4    7     1      -0.3687048650E-01       4    7    1        -0.1980037269E+01      0.4872459435E+01
          0                 4           2             4    7     1       0.3938731236E-01       4    7    1         0.2174301442E+01      0.5325945794E+01
          0                 5           2             4    7     1      -0.1567655382E-02       4    8    1        -0.8895325052E-01      0.2178876454E+00
          0                 6           1             4    7     1       0.1934417957E-04       4    8    1         0.1128141796E-02      0.2763378507E-02

    ------------------------------------------------
       NWT REQUIRED            6 OUTER ITERATIONS 
       AND A TOTAL OF         11 INNER ITERATIONS.
    ------------------------------------------------

 NO OUTPUT CONTROL FOR STRESS PERIOD   43   TIME STEP   10
 
 SOLVING FOR HEAD 
                                                   Max.-Head-Change                         Max.-Flux-Residual
  Residual-Control   Outer-Iter.   Inner-Iter.     Column Row Layer    Maximum-Head-Change  Column Row Layer    Maximum-Flux-Residual          L2-NORM 
          0                 1           2             5    8     1       0.7040142323E-02       5    8    1         0.3763553136E+00      0.1093800342E+01
          0                 2           2             4    7     1      -0.1635991958E-01       5    8    1        -0.8903332808E+00      0.2184344887E+01
          0                 3           2             4    7     1      -0.3679473123E-01       4    7    1        -0.1975969191E+01      0.4862432166E+01
          0                 4           2             4    7     1       0.3934014820E-01       4    7    1         0.2171684788E+01      0.5319399109E+01
          0                 5           2             4    7     1      -0.1565991754E-02       4    6    1        -0.8979241185E-01      0.2180163913E+00
          0                 6           1             4    7     1       0.1932365177E-04       4    6    1         0.1138929098E-02      0.2765132112E-02

    ------------------------------------------------
       NWT REQUIRED            6 OUTER ITERATIONS 
       AND A TOTAL OF         11 INNER ITERATIONS.
    ------------------------------------------------

 NO OUTPUT CONTROL FOR STRESS PERIOD   43   TIME STEP   11
 
 SOLVING FOR HEAD 
                                                   Max.-Head-Change                         Max.-Flux-Residual
  Residual-Control   Outer-Iter.   Inner-Iter.     Column Row Layer    Maximum-Head-Change  Column Row Layer    Maximum-Flux-Residual          L2-NORM 
          0                 1           2             5    8     1       0.7298497889E-02       5    8    1         0.3904756667E+00      0.1116237124E+01
          0                 2           2             4    7     1      -0.1640461531E-01       5    8    1        -0.8934295763E+00      0.2191475954E+01
          0                 3           2             4    7     1      -0.3673978577E-01       4    7    1        -0.1973018521E+01      0.4855146276E+01
          0                 4           2             4    7     1       0.3930581840E-01       4    7    1         0.2169793908E+01      0.5314604357E+01
          0                 5           2             4    7     1      -0.1564534296E-02       4    6    1        -0.8931009721E-01      0.2176588562E+00
          0                 6           1             4    7     1       0.1930566706E-04       4    6    1         0.1132703180E-02      0.2760458218E-02

    ------------------------------------------------
       NWT REQUIRED            6 OUTER ITERATIONS 
       AND A TOTAL OF         11 INNER ITERATIONS.
    ------------------------------------------------

 NO OUTPUT CONTROL FOR STRESS PERIOD   43   TIME STEP   12
 
 SOLVING FOR HEAD 
                                                   Max.-Head-Change                         Max.-Flux-Residual
  Residual-Control   Outer-Iter.   Inner-Iter.     Column Row Layer    Maximum-Head-Change  Column Row Layer    Maximum-Flux-Residual          L2-NORM 
          0                 1           2             5    8     1       0.7544676681E-02       5    8    1         0.4039202927E+00      0.1138433767E+01
          0                 2           2             4    7     1      -0.1644073979E-01       5    8    1        -0.8959899850E+00      0.2197352874E+01
          0                 3           2             4    7     1      -0.3669987921E-01       4    7    1        -0.1970875356E+01      0.4849846738E+01
          0                 4           2             4    7     1       0.3928099876E-01       4    7    1         0.2168427873E+01      0.5311099834E+01
          0                 5           2             4    7     1      -0.1563457738E-02       4    6    1        -0.8885983157E-01      0.2173596681E+00
          0                 6           1             4    7     1       0.1929238254E-04       4    6    1         0.1126961724E-02      0.2756662239E-02

    ------------------------------------------------
       NWT REQUIRED            6 OUTER ITERATIONS 
       AND A TOTAL OF         11 INNER ITERATIONS.
    ------------------------------------------------

 NO OUTPUT CONTROL FOR STRESS PERIOD   43   TIME STEP   13
 
 SOLVING FOR HEAD 
                                                   Max.-Head-Change                         Max.-Flux-Residual
  Residual-Control   Outer-Iter.   Inner-Iter.     Column Row Layer    Maximum-Head-Change  Column Row Layer    Maximum-Flux-Residual          L2-NORM 
          0                 1           2             5    8     1       0.7779379537E-02       5    8    1         0.4167285854E+00      0.1160307649E+01
          0                 2           2             4    7     1      -0.1647067676E-01       5    8    1        -0.8981474308E+00      0.2202298923E+01
          0                 3           2             4    7     1      -0.3667120255E-01       4    7    1        -0.1969316878E+01      0.4846091289E+01
          0                 4           2             4    7     1       0.3926342743E-01       4    7    1         0.2167442281E+01      0.5309131020E+01
          0                 5           2             4    7     1      -0.1562724320E-02       4    8    1        -0.8867231997E-01      0.2171991522E+00
          0                 6           1             4    7     1       0.1928333289E-04       4    8    1         0.1124578935E-02      0.2754605928E-02

    ------------------------------------------------
       NWT REQUIRED            6 OUTER ITERATIONS 
       AND A TOTAL OF         11 INNER ITERATIONS.
    ------------------------------------------------

 NO OUTPUT CONTROL FOR STRESS PERIOD   43   TIME STEP   14
 
 SOLVING FOR HEAD 
                                                   Max.-Head-Change                         Max.-Flux-Residual
  Residual-Control   Outer-Iter.   Inner-Iter.     Column Row Layer    Maximum-Head-Change  Column Row Layer    Maximum-Flux-Residual          L2-NORM 
          0                 1           2             5    8     1       0.8002994080E-02       5    8    1         0.4289225642E+00      0.1181714469E+01
          0                 2           2             4    7     1      -0.1649624374E-01       5    8    1        -0.8999986486E+00      0.2206538534E+01
          0                 3           2             4    7     1      -0.3664995134E-01       4    7    1        -0.1968178759E+01      0.4843163783E+01
          0                 4           2             4    7     1       0.3925054955E-01       4    7    1         0.2166730674E+01      0.5307376933E+01
          0                 5           2             4    7     1      -0.1562211759E-02       4    8    1        -0.8864315002E-01      0.2171273978E+00
          0                 6           1             4    7     1       0.1927700836E-04       4    8    1         0.1124209002E-02      0.2753694999E-02

    ------------------------------------------------
       NWT REQUIRED            6 OUTER ITERATIONS 
       AND A TOTAL OF         11 INNER ITERATIONS.
    ------------------------------------------------

 NO OUTPUT CONTROL FOR STRESS PERIOD   43   TIME STEP   15
 
 SOLVING FOR HEAD 
                                                   Max.-Head-Change                         Max.-Flux-Residual
  Residual-Control   Outer-Iter.   Inner-Iter.     Column Row Layer    Maximum-Head-Change  Column Row Layer    Maximum-Flux-Residual          L2-NORM 
          0                 1           2             5    8     1       0.8216601295E-02       5    8    1         0.4405624927E+00      0.1202636101E+01
          0                 2           2             4    7     1      -0.1651844761E-01       5    8    1        -0.9016176735E+00      0.2210249036E+01
          0                 3           2             4    7     1      -0.3663444038E-01       4    7    1        -0.1967345377E+01      0.4841093286E+01
          0                 4           2             4    7     1       0.3924126832E-01       4    7    1         0.2166217368E+01      0.5306116378E+01
          0                 5           2             4    7     1      -0.1561842351E-02       4    8    1        -0.8862209958E-01      0.2170758155E+00
          0                 6           1             4    7     1       0.1927244987E-04       4    8    1         0.1123942048E-02      0.2753039337E-02

    ------------------------------------------------
       NWT REQUIRED            6 OUTER ITERATIONS 
       AND A TOTAL OF         11 INNER ITERATIONS.
    ------------------------------------------------

 NO OUTPUT CONTROL FOR STRESS PERIOD   43   TIME STEP   16
 
 SOLVING FOR HEAD 
                                                   Max.-Head-Change                         Max.-Flux-Residual
  Residual-Control   Outer-Iter.   Inner-Iter.     Column Row Layer    Maximum-Head-Change  Column Row Layer    Maximum-Flux-Residual          L2-NORM 
          0                 1           2             5    8     1       0.8420370823E-02       5    8    1         0.4516581586E+00      0.1223075641E+01
          0                 2           2             4    7     1      -0.1653832769E-01       5    8    1        -0.9030550159E+00      0.2213561183E+01
          0                 3           2             4    7     1      -0.3662298898E-01       4    7    1        -0.1966729919E+01      0.4839561534E+01
          0                 4           2             4    7     1       0.3923456660E-01       4    7    1         0.2165846455E+01      0.5305205028E+01
          0                 5           2             4    7     1      -0.1561575611E-02       4    8    1        -0.8860688121E-01      0.2170385380E+00
          0                 6           1             4    7     1       0.1926915840E-04       4    8    1         0.1123749015E-02      0.2752572890E-02

    ------------------------------------------------
       NWT REQUIRED            6 OUTER ITERATIONS 
       AND A TOTAL OF         11 INNER ITERATIONS.
    ------------------------------------------------

 NO OUTPUT CONTROL FOR STRESS PERIOD   43   TIME STEP   17
 
 SOLVING FOR HEAD 
                                                   Max.-Head-Change                         Max.-Flux-Residual
  Residual-Control   Outer-Iter.   Inner-Iter.     Column Row Layer    Maximum-Head-Change  Column Row Layer    Maximum-Flux-Residual          L2-NORM 
          0                 1           2             5    8     1       0.8615179342E-02       5    8    1         0.4622580373E+00      0.1243016912E+01
          0                 2           2             4    7     1      -0.1655650216E-01       5    8    1        -0.9043512861E+00      0.2216567135E+01
          0                 3           2             4    7     1      -0.3661447943E-01       4    7    1        -0.1966272373E+01      0.4838421326E+01
          0                 4           2             4    7     1       0.3922972363E-01       4    7    1         0.2165578150E+01      0.5304545394E+01
          0                 5           2             4    7     1      -0.1561382853E-02       4    8    1        -0.8859586631E-01      0.2170115527E+00
          0                 6           1             4    7     1       0.1926677974E-04       4    8    1         0.1123609322E-02      0.2752228166E-02

    ------------------------------------------------
       NWT REQUIRED            6 OUTER ITERATIONS 
       AND A TOTAL OF         11 INNER ITERATIONS.
    ------------------------------------------------

 NO OUTPUT CONTROL FOR STRESS PERIOD   43   TIME STEP   18
 
 SOLVING FOR HEAD 
                                                   Max.-Head-Change                         Max.-Flux-Residual
  Residual-Control   Outer-Iter.   Inner-Iter.     Column Row Layer    Maximum-Head-Change  Column Row Layer    Maximum-Flux-Residual          L2-NORM 
          0                 1           2             5    8     1       0.8801272802E-02       5    8    1         0.4723766555E+00      0.1262439420E+01
          0                 2           2             4    7     1      -0.1657345102E-01       5    8    1        -0.9055333283E+00      0.2219331234E+01
          0                 3           2             4    7     1      -0.3660808120E-01       4    7    1        -0.1965928139E+01      0.4837562876E+01
          0                 4           2             4    7     1       0.3922622397E-01       4    7    1         0.2165383999E+01      0.5304067734E+01
          0                 5           2             4    7     1      -0.1561243561E-02       4    8    1        -0.8858789078E-01      0.2169920036E+00
          0                 6           1             4    7     1       0.1926506097E-04       4    8    1         0.1123508172E-02      0.2751976291E-02

    ------------------------------------------------
       NWT REQUIRED            6 OUTER ITERATIONS 
       AND A TOTAL OF         11 INNER ITERATIONS.
    ------------------------------------------------

 NO OUTPUT CONTROL FOR STRESS PERIOD   43   TIME STEP   19
 
 SOLVING FOR HEAD 
                                                   Max.-Head-Change                         Max.-Flux-Residual
  Residual-Control   Outer-Iter.   Inner-Iter.     Column Row Layer    Maximum-Head-Change  Column Row Layer    Maximum-Flux-Residual          L2-NORM 
          0                 1           2             5    8     1       0.8979314942E-02       5    8    1         0.4820505227E+00      0.1281344363E+01
          0                 2           2             4    7     1      -0.1658947427E-01       5    8    1        -0.9066232709E+00      0.2221903628E+01
          0                 3           2             4    7     1      -0.3660321607E-01       4    7    1        -0.1965666180E+01      0.4836909741E+01
          0                 4           2             4    7     1       0.3922368699E-01       4    7    1         0.2165242993E+01      0.5303720570E+01
          0                 5           2             4    7     1      -0.1561142585E-02       4    8    1        -0.8858209422E-01      0.2169778011E+00
          0                 6           1             4    7     1       0.1926381468E-04       4    8    1         0.1123434666E-02      0.2751800209E-02

    ------------------------------------------------
       NWT REQUIRED            6 OUTER ITERATIONS 
       AND A TOTAL OF         11 INNER ITERATIONS.
    ------------------------------------------------

 NO OUTPUT CONTROL FOR STRESS PERIOD   43   TIME STEP   20
 
 SOLVING FOR HEAD 
                                                   Max.-Head-Change                         Max.-Flux-Residual
  Residual-Control   Outer-Iter.   Inner-Iter.     Column Row Layer    Maximum-Head-Change  Column Row Layer    Maximum-Flux-Residual          L2-NORM 
          0                 1           2             5    8     1       0.9149784290E-02       5    8    1         0.4913064440E+00      0.1299740359E+01
          0                 2           2             4    7     1      -0.1660482372E-01       5    8    1        -0.9076367287E+00      0.2224319980E+01
          0                 3           2             4    7     1      -0.3659945687E-01       4    7    1        -0.1965463554E+01      0.4836405181E+01
          0                 4           2             4    7     1       0.3922185796E-01       4    7    1         0.2165141069E+01      0.5303469437E+01
          0                 5           2             4    7     1      -0.1561069787E-02       4    8    1        -0.8857790138E-01      0.2169675332E+00
          0                 6           1             4    7     1       0.1926291676E-04       4    8    1         0.1123381475E-02      0.2751670398E-02

    ------------------------------------------------
       NWT REQUIRED            6 OUTER ITERATIONS 
       AND A TOTAL OF         11 INNER ITERATIONS.
    ------------------------------------------------

 NO OUTPUT CONTROL FOR STRESS PERIOD   43   TIME STEP   21
 
 SOLVING FOR HEAD 
                                                   Max.-Head-Change                         Max.-Flux-Residual
  Residual-Control   Outer-Iter.   Inner-Iter.     Column Row Layer    Maximum-Head-Change  Column Row Layer    Maximum-Flux-Residual          L2-NORM 
          0                 1           2             5    6     1       0.9314725221E-02       5    8    1         0.5001614982E+00      0.1317623299E+01
          0                 2           2             4    7     1      -0.1661966387E-01       5    8    1        -0.9085857807E+00      0.2226607353E+01
          0                 3           2             4    7     1      -0.3659648794E-01       4    7    1        -0.1965303318E+01      0.4836007813E+01
          0                 4           2             4    7     1       0.3922052100E-01       4    7    1         0.2165066313E+01      0.5303285124E+01
          0                 5           2             4    7     1      -0.1561016573E-02       4    8    1        -0.8857482411E-01      0.2169599939E+00
          0                 6           1             4    7     1       0.1926226012E-04       4    8    1         0.1123342484E-02      0.2751577616E-02

    ------------------------------------------------
       NWT REQUIRED            6 OUTER ITERATIONS 
       AND A TOTAL OF         11 INNER ITERATIONS.
    ------------------------------------------------

 NO OUTPUT CONTROL FOR STRESS PERIOD   43   TIME STEP   22
 
 SOLVING FOR HEAD 
                                                   Max.-Head-Change                         Max.-Flux-Residual
  Residual-Control   Outer-Iter.   Inner-Iter.     Column Row Layer    Maximum-Head-Change  Column Row Layer    Maximum-Flux-Residual          L2-NORM 
          0                 1           2             5    6     1       0.9473204840E-02       5    8    1         0.5086394456E+00      0.1334995798E+01
          0                 2           2             4    7     1      -0.1663410105E-01       5    8    1        -0.9094792404E+00      0.2228784480E+01
          0                 3           2             4    7     1      -0.3659409316E-01       4    7    1        -0.1965173869E+01      0.4835688691E+01
          0                 4           2             4    7     1       0.3924029192E-01       5    7    1         0.2164975876E+01      0.5303134356E+01
          0                 5           2             4    7     1      -0.1589277189E-02       4    7    1        -0.9024252742E-01      0.2184874664E+00
          0                 6           1             4    7     1       0.1477558843E-04       4    7    1         0.8627281588E-03      0.2080653897E-02

    ------------------------------------------------
       NWT REQUIRED            6 OUTER ITERATIONS 
       AND A TOTAL OF         11 INNER ITERATIONS.
    ------------------------------------------------

 NO OUTPUT CONTROL FOR STRESS PERIOD   43   TIME STEP   23
 
 SOLVING FOR HEAD 
                                                   Max.-Head-Change                         Max.-Flux-Residual
  Residual-Control   Outer-Iter.   Inner-Iter.     Column Row Layer    Maximum-Head-Change  Column Row Layer    Maximum-Flux-Residual          L2-NORM 
          0                 1           2             5    6     1       0.9625748479E-02       5    8    1         0.5167915774E+00      0.1351910423E+01
          0                 2           2             4    7     1      -0.1663848272E-01       5    8    1        -0.9098046897E+00      0.2229585166E+01
          0                 3           2             4    7     1      -0.3660884134E-01       4    7    1        -0.1965964982E+01      0.4837629693E+01
          0                 4           2             4    7     1       0.3924405158E-01       5    7    1         0.2165520587E+01      0.5304323608E+01
          0                 5           2             4    7     1      -0.1576170934E-02       4    7    1        -0.8947957079E-01      0.2173739310E+00
          0                 6           1             4    7     1       0.1944925539E-04       4    7    1         0.1134942168E-02      0.2756954152E-02

    ------------------------------------------------
       NWT REQUIRED            6 OUTER ITERATIONS 
       AND A TOTAL OF         11 INNER ITERATIONS.
    ------------------------------------------------

 NO OUTPUT CONTROL FOR STRESS PERIOD   43   TIME STEP   24
 
 SOLVING FOR HEAD 
                                                   Max.-Head-Change                         Max.-Flux-Residual
  Residual-Control   Outer-Iter.   Inner-Iter.     Column Row Layer    Maximum-Head-Change  Column Row Layer    Maximum-Flux-Residual          L2-NORM 
          0                 1           2             5    6     1       0.9771679410E-02       5    8    1         0.5245804108E+00      0.1368307094E+01
          0                 2           2             4    7     1      -0.1665506176E-01       5    8    1        -0.9107537514E+00      0.2231944331E+01
          0                 3           2             4    7     1      -0.3660246816E-01       4    7    1        -0.1965621814E+01      0.4836791485E+01
          0                 4           2             4    7     1       0.3923456043E-01       5    7    1         0.2165326144E+01      0.5303705840E+01
          0                 5           2             4    7     1      -0.1569963302E-02       4    7    1        -0.8910849224E-01      0.2172040375E+00
          0                 6           1             4    7     1       0.1937265703E-04       4    7    1         0.1130138360E-02      0.2754680570E-02

    ------------------------------------------------
       NWT REQUIRED            6 OUTER ITERATIONS 
       AND A TOTAL OF         11 INNER ITERATIONS.
    ------------------------------------------------

 NO OUTPUT CONTROL FOR STRESS PERIOD   43   TIME STEP   25
 
 SOLVING FOR HEAD 
                                                   Max.-Head-Change                         Max.-Flux-Residual
  Residual-Control   Outer-Iter.   Inner-Iter.     Column Row Layer    Maximum-Head-Change  Column Row Layer    Maximum-Flux-Residual          L2-NORM 
          0                 1           2             5    6     1       0.9911874763E-02       5    8    1         0.5320635392E+00      0.1384243597E+01
          0                 2           2             4    7     1      -0.1667065180E-01       5    8    1        -0.9116246182E+00      0.2234128916E+01
          0                 3           2             4    7     1      -0.3659763247E-01       4    7    1        -0.1965361182E+01      0.4836159842E+01
          0                 4           2             4    7     1       0.3922616392E-01       4    8    1         0.2165174057E+01      0.5303216895E+01
          0                 5           2             4    7     1      -0.1563927355E-02       4    7    1        -0.8874756980E-01      0.2170404825E+00
          0                 6           1             4    7     1       0.1929817723E-04       4    7    1         0.1125537758E-02      0.2760577613E-02

    ------------------------------------------------
       NWT REQUIRED            6 OUTER ITERATIONS 
       AND A TOTAL OF         11 INNER ITERATIONS.
    ------------------------------------------------

 NO OUTPUT CONTROL FOR STRESS PERIOD   43   TIME STEP   26
 
 SOLVING FOR HEAD 
                                                   Max.-Head-Change                         Max.-Flux-Residual
  Residual-Control   Outer-Iter.   Inner-Iter.     Column Row Layer    Maximum-Head-Change  Column Row Layer    Maximum-Flux-Residual          L2-NORM 
          0                 1           2             5    6     1       0.1004679091E-01       5    8    1         0.5392424494E+00      0.1399730094E+01
          0                 2           2             4    7     1      -0.1668549723E-01       5    8    1        -0.9124303731E+00      0.2236173383E+01
          0                 3           2             4    7     1      -0.3661754133E-01       4    7    1        -0.1965367322E+01      0.4835758555E+01
          0                 4           2             4    7     1       0.3924320587E-01       4    7    1         0.2165135204E+01      0.5303415136E+01
          0                 5           2             4    7     1      -0.1561904025E-02       4    8    1        -0.8857697124E-01      0.2169616846E+00
          0                 6           1             4    7     1       0.1927323622E-04       4    8    1         0.1123369697E-02      0.2752305425E-02

    ------------------------------------------------
       NWT REQUIRED            6 OUTER ITERATIONS 
       AND A TOTAL OF         11 INNER ITERATIONS.
    ------------------------------------------------

 NO OUTPUT CONTROL FOR STRESS PERIOD   43   TIME STEP   27
 
 SOLVING FOR HEAD 
                                                   Max.-Head-Change                         Max.-Flux-Residual
  Residual-Control   Outer-Iter.   Inner-Iter.     Column Row Layer    Maximum-Head-Change  Column Row Layer    Maximum-Flux-Residual          L2-NORM 
          0                 1           2             5    6     1       0.1017641506E-01       5    6    1         0.5461550492E+00      0.1414745400E+01
          0                 2           2             4    7     1      -0.1669968869E-01       5    6    1        -0.9131849824E+00      0.2238103189E+01
          0                 3           2             4    7     1      -0.3662037360E-01       4    7    1        -0.1965535323E+01      0.4835511990E+01
          0                 4           2             4    7     1       0.3924225462E-01       4    7    1         0.2165083426E+01      0.5303241693E+01
          0                 5           2             4    7     1      -0.1561866166E-02       4    8    1        -0.8857391864E-01      0.2169545891E+00
          0                 6           1             4    7     1       0.1927276912E-04       4    7    1         0.1123332957E-02      0.2752214180E-02

    ------------------------------------------------
       NWT REQUIRED            6 OUTER ITERATIONS 
       AND A TOTAL OF         11 INNER ITERATIONS.
    ------------------------------------------------

 NO OUTPUT CONTROL FOR STRESS PERIOD   43   TIME STEP   28
 
 SOLVING FOR HEAD 
                                                   Max.-Head-Change                         Max.-Flux-Residual
  Residual-Control   Outer-Iter.   Inner-Iter.     Column Row Layer    Maximum-Head-Change  Column Row Layer    Maximum-Flux-Residual          L2-NORM 
          0                 1           2             5    6     1       0.1030116843E-01       5    6    1         0.5528929860E+00      0.1429296506E+01
          0                 2           2             4    7     1      -0.1672177313E-01       5    6    1        -0.9139044328E+00      0.2239921817E+01
          0                 3           2             4    7     1      -0.3660863184E-01       4    7    1        -0.1964877622E+01      0.4834995442E+01
          0                 4           2             4    7     1       0.3924063278E-01       4    7    1         0.2164991606E+01      0.5303092776E+01
          0                 5           2             4    7     1      -0.1569094798E-02       4    8    1        -0.8898528085E-01      0.2179615692E+00
          0                 6           1             4    7     1       0.1452392797E-04       4    8    1         0.8465584554E-03      0.2074635242E-02

    ------------------------------------------------
       NWT REQUIRED            6 OUTER ITERATIONS 
       AND A TOTAL OF         11 INNER ITERATIONS.
    ------------------------------------------------

 NO OUTPUT CONTROL FOR STRESS PERIOD   43   TIME STEP   29
 
 SOLVING FOR HEAD 
                                                   Max.-Head-Change                         Max.-Flux-Residual
  Residual-Control   Outer-Iter.   Inner-Iter.     Column Row Layer    Maximum-Head-Change  Column Row Layer    Maximum-Flux-Residual          L2-NORM 
          0                 1           2             5    6     1       0.1042169341E-01       5    6    1         0.5593992358E+00      0.1443470963E+01
          0                 2           2             4    7     1      -0.1672498466E-01       5    6    1        -0.9140652858E+00      0.2240382644E+01
          0                 3           2             4    7     1      -0.3662346148E-01       4    7    1        -0.1965673031E+01      0.4836954239E+01
          0                 4           2             4    7     1       0.3925052743E-01       4    7    1         0.2165537064E+01      0.5304428909E+01
          0                 5           2             4    7     1      -0.1562195429E-02       4    8    1        -0.8859400024E-01      0.2170031589E+00
          0                 6           1             4    7     1       0.1927683193E-04       4    8    1         0.1123585666E-02      0.2752828780E-02

    ------------------------------------------------
       NWT REQUIRED            6 OUTER ITERATIONS 
       AND A TOTAL OF         11 INNER ITERATIONS.
    ------------------------------------------------

 NO OUTPUT CONTROL FOR STRESS PERIOD   43   TIME STEP   30



 STREAM LISTING     PERIOD     43   STEP       30

 LAYER ROW COL. STREAM  RCH.  FLOW INTO     FLOW TO   FLOW OUT OF   OVRLND.     DIRECT     STREAM       STREAM     STREAM     STREAM   STREAMBED  STREAMBED
                SEG.NO.  NO.  STRM. RCH.    AQUIFER    STRM. RCH.    RUNOFF     PRECIP       ET          HEAD       DEPTH      WIDTH   CONDCTNC.   GRADIENT

   1    1    1     1     1    2.1749E+01  2.2965E-01   2.1520E+01  0.000E+00  0.000E+00  0.000E+00  1.09418E+03  1.128E+00  1.236E+01  5.564E-02  1.376E+00
   1    2    2     1     2    2.1520E+01  3.5497E-01   2.1165E+01  0.000E+00  0.000E+00  0.000E+00  1.08918E+03  1.123E+00  1.230E+01  8.610E-02  1.374E+00
   1    3    3     1     3    2.1165E+01  3.0207E-01   2.0863E+01  0.000E+00  0.000E+00  0.000E+00  1.08354E+03  1.117E+00  1.223E+01  7.337E-02  1.372E+00
   1    3    4     1     4    2.0863E+01  2.7761E-01   2.0585E+01  0.000E+00  0.000E+00  0.000E+00  1.07852E+03  1.112E+00  1.216E+01  6.751E-02  1.371E+00
   1    4    5     2     1    1.8585E+01  3.1244E-01   1.8273E+01  0.000E+00  0.000E+00  0.000E+00  1.07294E+03  1.006E+00  1.200E+01  7.800E-02  1.335E+00
   1    5    6     2     2    1.8273E+01  2.3979E-01   1.8033E+01  0.000E+00  0.000E+00  0.000E+00  1.06751E+03  9.966E-01  1.200E+01  6.000E-02  1.332E+00
   1    6    6     2     3    1.8033E+01  2.3932E-01   1.7793E+01  0.000E+00  0.000E+00  0.000E+00  1.06278E+03  9.887E-01  1.200E+01  6.000E-02  1.330E+00
   1    7    6     2     4    1.7793E+01  2.3884E-01   1.7555E+01  0.000E+00  0.000E+00  0.000E+00  1.05806E+03  9.807E-01  1.200E+01  6.000E-02  1.327E+00
   1    8    6     2     5    1.7555E+01  2.3837E-01   1.7316E+01  0.000E+00  0.000E+00  0.000E+00  1.05333E+03  9.728E-01  1.200E+01  6.000E-02  1.324E+00
   1    3    5     3     1    2.0000E+00  2.8252E-01   1.7175E+00  0.000E+00  0.000E+00  0.000E+00  1.07555E+03  1.909E+00  9.636E+00  7.227E-02  1.955E+00
   1    3    6     3     2    1.7175E+00  2.4905E-01   1.4684E+00  0.000E+00  0.000E+00  0.000E+00  1.07264E+03  1.727E+00  8.909E+00  6.682E-02  1.864E+00
   1    3    7     3     3    1.4684E+00  1.9718E-01   1.2712E+00  0.000E+00  0.000E+00  0.000E+00  1.06987E+03  1.555E+00  8.218E+00  5.547E-02  1.777E+00
   1    4    8     3     4    1.2712E+00  2.2567E-01   1.0456E+00  0.000E+00  0.000E+00  0.000E+00  1.06682E+03  1.364E+00  7.455E+00  6.709E-02  1.682E+00
   1    5    8     3     5    1.0456E+00  1.5790E-01   8.8768E-01  0.000E+00  0.000E+00  0.000E+00  1.06362E+03  1.164E+00  6.655E+00  4.991E-02  1.582E+00
   1    6    8     3     6    8.8768E-01  5.5980E-02   8.3170E-01  0.000E+00  0.000E+00  0.000E+00  1.06158E+03  1.036E+00  6.145E+00  1.844E-02  1.518E+00
   1    5   10     4     1    1.0000E+01  9.0919E-02   9.9091E+00  0.000E+00  0.000E+00  0.000E+00  1.07836E+03  6.368E-01  1.000E+01  2.500E-02  1.212E+00
   1    5    9     4     2    9.9091E+00  1.8158E-01   9.7275E+00  0.000E+00  0.000E+00  0.000E+00  1.07154E+03  6.315E-01  1.000E+01  5.000E-02  1.211E+00
   1    6    8     4     3    9.7275E+00  1.2689E-01   9.6006E+00  0.000E+00  0.000E+00  0.000E+00  1.06381E+03  6.256E-01  1.000E+01  3.500E-02  1.209E+00
   1    6    8     5     1    1.0432E+01  2.2686E-01   1.0205E+01  0.000E+00  0.000E+00  0.000E+00  1.05868E+03  6.790E-01  1.542E+01  6.166E-02  1.226E+00
   1    7    7     5     2    1.0205E+01  2.7894E-01   9.9265E+00  0.000E+00  0.000E+00  0.000E+00  1.05417E+03  6.732E-01  1.519E+01  7.594E-02  1.224E+00
   1    8    7     5     3    9.9265E+00  1.9221E-01   9.7343E+00  0.000E+00  0.000E+00  0.000E+00  1.04992E+03  6.676E-01  1.497E+01  5.241E-02  1.223E+00
   1    8    6     5     4    9.7343E+00  1.3577E-01   9.5985E+00  0.000E+00  0.000E+00  0.000E+00  1.04691E+03  6.637E-01  1.482E+01  3.706E-02  1.221E+00
   1    9    6     6     1    9.5985E+00  2.2097E-01   9.3776E+00  0.000E+00  0.000E+00  0.000E+00  1.04341E+03  6.828E-01  1.200E+01  6.000E-02  1.228E+00
   1   10    7     6     2    9.3776E+00  2.2039E-01   9.1572E+00  0.000E+00  0.000E+00  0.000E+00  1.03885E+03  6.732E-01  1.200E+01  6.000E-02  1.224E+00
   1   11    7     6     3    9.1572E+00  2.1981E-01   8.9374E+00  0.000E+00  0.000E+00  0.000E+00  1.03430E+03  6.636E-01  1.200E+01  6.000E-02  1.221E+00
   1   12    7     6     4    8.9374E+00  2.1923E-01   8.7181E+00  0.000E+00  0.000E+00  0.000E+00  1.02974E+03  6.539E-01  1.200E+01  6.000E-02  1.218E+00
   1   13    7     6     5    8.7181E+00  2.8492E-03   8.7153E+00  0.000E+00  0.000E+00  0.000E+00  1.02656E+03  6.489E-01  1.200E+01  2.400E-02  3.957E-02
   1   14    9     7     1    1.5000E+02  1.4044E+00   1.4860E+02  0.000E+00  0.000E+00  0.000E+00  1.03987E+03  2.288E+00  5.529E+01  5.593E-01  8.370E-01
   1   13    8     7     2    1.4860E+02  2.0440E+00   1.4655E+02  0.000E+00  0.000E+00  0.000E+00  1.03478E+03  2.278E+00  5.525E+01  6.147E-01  1.108E+00
   1   13    7     7     3    1.4655E+02  1.8135E+00   1.4474E+02  0.000E+00  0.000E+00  0.000E+00  1.02969E+03  2.268E+00  5.521E+01  5.583E-01  1.083E+00
   1   13    6     8     1    1.5345E+02  1.1567E+00   1.5230E+02  0.000E+00  0.000E+00  0.000E+00  1.02471E+03  2.837E+00  4.114E+01  4.192E-01  9.198E-01
   1   13    5     8     2    1.5230E+02  4.0354E-01   1.5189E+02  0.000E+00  0.000E+00  0.000E+00  1.01846E+03  2.832E+00  4.106E+01  4.184E-01  3.215E-01
   1   13    4     8     3    1.5189E+02 -1.6437E+00   1.5354E+02  0.000E+00  0.000E+00  0.000E+00  1.01221E+03  2.836E+00  4.112E+01  4.190E+00 -1.308E-01
   1   13    3     8     4    1.5354E+02 -3.2598E+00   1.5680E+02  0.000E+00  0.000E+00  0.000E+00  1.00598E+03  2.853E+00  4.137E+01  4.215E+00 -2.578E-01
   1   13    2     8     5    1.5680E+02 -2.5110E+00   1.5931E+02  0.000E+00  0.000E+00  0.000E+00  9.99748E+02  2.873E+00  4.165E+01  4.245E+00 -1.972E-01
   1   13    1     8     6    1.5931E+02 -1.9985E+00   1.6131E+02  0.000E+00  0.000E+00  0.000E+00  9.94763E+02  2.888E+00  4.187E+01  2.560E+00 -2.602E-01
   1    8    6     9     1    1.7316E+01  0.0000E+00   1.7316E+01  0.000E+00  0.000E+00  0.000E+00  1.08190E+03  3.150E+00  4.000E+00  0.000E+00  2.050E+00
   1    8    5     9     2    1.7316E+01  0.0000E+00   1.7316E+01  0.000E+00  0.000E+00  0.000E+00  1.08140E+03  3.150E+00  4.000E+00  0.000E+00  2.050E+00





UNSATURATED ZONE PACKAGE VOLUMETRIC BUDGET FOR  TIME STEP    30 STRESS PERIOD   43
  ------------------------------------------------------------------------------



     CUMULATIVE VOLUMES      L**3       RATES FOR THIS TIME STEP      L**3/T
     ------------------                 ------------------------

           IN:                                      IN:
           ---                                      ---
        INFILTRATION =  1845518132.9731          INFILTRATION =          23.3162

          OUT:                                     OUT:
          ----                                     ----
              UZF ET =  1375687834.3552                UZF ET =          23.3175
        UZF RECHARGE =   128126054.9296          UZF RECHARGE =       0.0000E+00

            IN - OUT =   341704243.6883              IN - OUT =      -1.2789E-03

          STORAGE:                                 STORAGE:
          --------                                 --------
      STORAGE CHANGE =   341704493.3285        STORAGE CHANGE =      -1.2790E-03

 PERCENT DISCREPANCY IS DIFFERENCE BETWEEN IN-OUT MINUS CHANGE IN STORAGE
 DIVIDED BY THE AVERAGE OF IN AND OUT TIMES 100

 PERCENT DISCREPANCY =          -0.00     PERCENT DISCREPANCY =           0.00






1
  VOLUMETRIC BUDGET FOR AGRICULTURAL FIELDS AT  END OF TIME STEP   30, STRESS PERIOD  43
  ------------------------------------------------------------------------------

     CUMULATIVE VOLUMES      L**3       RATES FOR THIS TIME STEP      L**3/T
     ------------------                 ------------------------

           IN:                                      IN:
           ---                                      ---
               AG WELLS  =  1100740480.0000                 AG WELLS  =           5.1521
      DIVERSION SEGMENTS =   651195200.0000        DIVERSION SEGMENTS =          17.3163
       IRRIGATION PONDS  =           0.0000         IRRIGATION PONDS  =           0.0000
           GW IRRIGATION =           0.0000             GW IRRIGATION =           0.0000
           SW IRRIGATION =           0.0000             SW IRRIGATION =           0.0000
        SYSTEM LOSSES GW =           0.0000          SYSTEM LOSSES GW =           0.0000
        SYSTEM LOSSES SW =           0.0000          SYSTEM LOSSES SW =           0.0000

                TOTAL IN =  1751935744.0000                  TOTAL IN =          22.4684

          OUT:                                     OUT:
          ----                                     ----
               AG WELLS  =           0.0000                 AG WELLS  =           0.0000
      DIVERSION SEGMENTS =           0.0000        DIVERSION SEGMENTS =           0.0000
       IRRIGATION PONDS  =           0.0000         IRRIGATION PONDS  =           0.0000
           GW IRRIGATION =  1100740480.0000             GW IRRIGATION =           5.1521
           SW IRRIGATION =   651206720.0000             SW IRRIGATION =          17.3166
        SYSTEM LOSSES GW =           0.0000          SYSTEM LOSSES GW =           0.0000
        SYSTEM LOSSES SW =           0.0000          SYSTEM LOSSES SW =           0.0000

               TOTAL OUT =  1751947264.0000                 TOTAL OUT =          22.4687

                IN - OUT =      -11520.0000                  IN - OUT =      -3.4523E-04

     PERCENT DISCREPANCY =          -0.00         PERCENT DISCREPANCY =          -0.00



1
  VOLUMETRIC BUDGET FOR ENTIRE MODEL AT END OF TIME STEP   30, STRESS PERIOD  43
  ------------------------------------------------------------------------------

     CUMULATIVE VOLUMES      L**3       RATES FOR THIS TIME STEP      L**3/T
     ------------------                 ------------------------

           IN:                                      IN:
           ---                                      ---
             STORAGE     =  1689750784.0000               STORAGE     =           3.9238
       CONSTANT HEAD     =           0.0000         CONSTANT HEAD     =           0.0000
     HEAD DEP BOUNDS     =    31924000.0000       HEAD DEP BOUNDS     =           0.2904
      STREAM LEAKAGE     =  1330928384.0000        STREAM LEAKAGE     =          12.5399
        UZF RECHARGE     =   128126128.0000          UZF RECHARGE     =           0.0000
               GW ET     =           0.0000                 GW ET     =           0.0000
     SURFACE LEAKAGE     =           0.0000       SURFACE LEAKAGE     =           0.0000
           AG WELLS      =           0.0000             AG WELLS      =           0.0000

                TOTAL IN =  3180729344.0000                  TOTAL IN =          16.7542

          OUT:                                     OUT:
          ----                                     ----
             STORAGE     =   966137984.0000               STORAGE     =           1.9023
       CONSTANT HEAD     =           0.0000         CONSTANT HEAD     =           0.0000
     HEAD DEP BOUNDS     =    31817074.0000       HEAD DEP BOUNDS     =           0.2867
      STREAM LEAKAGE     =  1082006656.0000        STREAM LEAKAGE     =           9.4130
        UZF RECHARGE     =           0.0000          UZF RECHARGE     =           0.0000
               GW ET     =           0.0000                 GW ET     =           0.0000
     SURFACE LEAKAGE     =           0.0000       SURFACE LEAKAGE     =           0.0000
           AG WELLS      =  1100740480.0000             AG WELLS      =           5.1521

               TOTAL OUT =  3180702208.0000                 TOTAL OUT =          16.7541

                IN - OUT =       27136.0000                  IN - OUT =       1.0300E-04

     PERCENT DISCREPANCY =           0.00         PERCENT DISCREPANCY =           0.00






         TIME SUMMARY AT END OF TIME STEP   30 IN STRESS PERIOD   43
                    SECONDS     MINUTES      HOURS       DAYS        YEARS
                    -----------------------------------------------------------
   TIME STEP LENGTH  87667.      1461.1      24.352      1.0147     2.77799E-03
 STRESS PERIOD TIME 2.63000E+06  43833.      730.56      30.440     8.33397E-02
         TOTAL TIME 1.10545E+08 1.84242E+06  30707.      1279.5      3.5030    
1
1
                            STRESS PERIOD NO.   44, LENGTH =   2630000.    
                            -----------------------------------------------

                              NUMBER OF TIME STEPS =    30

                               MULTIPLIER FOR DELT =     1.000

                            INITIAL TIME STEP SIZE =   87666.66    

 REUSING NON-PARAMETER GHB CELLS FROM LAST STRESS PERIOD

      2 GHB CELLS

 REUSING STREAM SEGMENT DATA FROM LAST STRESS PERIOD



            AREAL INFILTRATION RATE
 READING ON UNIT   19 WITH FORMAT: (FREE)              

            1           2           3           4           5           6           7           8           9          10
 ........................................................................................................................
   1   1.0000E-10  2.0000E-10   0.000       0.000       0.000       0.000       0.000       0.000       0.000       0.000    
   2   2.0000E-10  1.0000E-10  2.0000E-10   0.000       0.000      8.0000E-10  8.0000E-10  5.0000E-10   0.000       0.000    
   3    0.000      5.0000E-10  1.0000E-10  1.0000E-10  8.0000E-10  8.0000E-10  5.0000E-10  5.0000E-10   0.000       0.000    
   4   8.0000E-10  5.0000E-10  1.0000E-10  1.0000E-10  1.0000E-10  1.0000E-10  1.0000E-10  1.0000E-10  2.0000E-10   0.000    
   5   8.0000E-10  5.0000E-10  1.0000E-10  1.0000E-10  1.0000E-10  1.0000E-10  1.0000E-10  1.0000E-10  1.0000E-10  1.0000E-10
   6   8.0000E-10  5.0000E-10  5.0000E-10  2.0000E-10  2.0000E-10  1.0000E-10  1.0000E-10  1.0000E-10  1.0000E-10  5.0000E-10
   7   8.0000E-10  5.0000E-10  5.0000E-10  2.0000E-10  2.0000E-10  1.0000E-10  1.0000E-10  2.0000E-10  2.0000E-10   0.000    
   8    0.000      5.0000E-10  5.0000E-10  2.0000E-10  2.0000E-10  1.0000E-10  1.0000E-10  2.0000E-10  5.0000E-10   0.000    
   9    0.000      5.0000E-10  5.0000E-10  2.0000E-10  2.0000E-10  1.0000E-10  1.0000E-10  2.0000E-10  5.0000E-10   0.000    
  10    0.000      5.0000E-10  5.0000E-10  2.0000E-10  2.0000E-10  1.0000E-10  1.0000E-10  2.0000E-10  5.0000E-10  8.0000E-10
  11    0.000      1.0000E-10  1.0000E-10  1.0000E-10  1.0000E-10  1.0000E-10  1.0000E-10  2.0000E-10  5.0000E-10   0.000    
  12   1.0000E-10  1.0000E-10  1.0000E-10  1.0000E-10  1.0000E-10  1.0000E-10  1.0000E-10  1.0000E-10  2.0000E-10   0.000    
  13   1.0000E-10  1.0000E-10  2.0000E-10  2.0000E-10  2.0000E-10  2.0000E-10  2.0000E-10  1.0000E-10  1.0000E-10   0.000    
  14    0.000      2.0000E-10  5.0000E-10  5.0000E-10  5.0000E-10  5.0000E-10  5.0000E-10  2.0000E-10  1.0000E-10   0.000    
  15    0.000       0.000      8.0000E-10  8.0000E-10  8.0000E-10  8.0000E-10   0.000       0.000       0.000       0.000    

                  ET RATE =  4.000000E-07

 USING ET EXTINCTION DEPTH FROM PREVIOUS STRESS PERIOD. CURRENT PERIOD IS:      44

 USING EXTINCTION WATER CONTENT FROM PREVIOUS STRESS PERIOD. CURRENT PERIOD IS:      44

 USING AIR ENTRY PRESSURE FROM PREVIOUS STRESS PERIOD. CURRENT PERIOD IS:      44

 USING ROOT PRESSURE HEAD FROM PREVIOUS STRESS PERIOD. CURRENT PERIOD IS:      44

 USING ROOT ACTIVITY FROM PREVIOUS STRESS PERIOD. CURRENT PERIOD IS:      44

 PROCESSING AG STRESS PERIOD DATA

 READING AG STRESS PERIOD DATA

 READING IRRIGATION SEGMENT

 READING IRRIGATION WELL

 READING SUPPLEMENTAL WELL

 NO IRRPOND OR REUSING IRRPOND DATA FROM LAST STRESS PERIOD

 END PROCESSING AG STRESS PERIOD DATA OPTIONS
 
 SOLVING FOR HEAD 
                                                   Max.-Head-Change                         Max.-Flux-Residual
  Residual-Control   Outer-Iter.   Inner-Iter.     Column Row Layer    Maximum-Head-Change  Column Row Layer    Maximum-Flux-Residual          L2-NORM 
          0                 1           2             5    6     1       0.1053734746E-01       5    6    1         0.5656387246E+00      0.1310661619E+01
          0                 2           2             4    7     1      -0.2657326041E+00       5    6    1        -0.1427881300E+02      0.3495984302E+02
          0                 3           2             4    7     1       0.1809423629E-01       5    6    1         0.9994973828E+00      0.2445514575E+01
          0                 4           2             4    7     1      -0.7199886493E-03       5    6    1        -0.4087959247E-01      0.1000223470E+00
          0                 5           1             4    7     1       0.8877768859E-05       5    6    1         0.5180702888E-03      0.1268394722E-02

    ------------------------------------------------
       NWT REQUIRED            5 OUTER ITERATIONS 
       AND A TOTAL OF          9 INNER ITERATIONS.
    ------------------------------------------------

 NO OUTPUT CONTROL FOR STRESS PERIOD   44   TIME STEP    1
 
 SOLVING FOR HEAD 
                                                   Max.-Head-Change                         Max.-Flux-Residual
  Residual-Control   Outer-Iter.   Inner-Iter.     Column Row Layer    Maximum-Head-Change  Column Row Layer    Maximum-Flux-Residual          L2-NORM 
          0                 1           2             5    8     1       0.1760534282E-01       5    8    1         0.9553816208E+00      0.2106353903E+01
          0                 2           2             4    7     1      -0.4687683705E-01       5    8    1        -0.2563628941E+01      0.6266897711E+01
          0                 3           2             4    7     1      -0.4507025803E-02       4    7    1        -0.2419729614E+00      0.5905833852E+00
          0                 4           2             4    7     1       0.6115773374E-02       4    7    1         0.3374218289E+00      0.8261736752E+00
          0                 5           2             4    7     1      -0.1766191471E-01       4    7    1        -0.1001596462E+01      0.2453380758E+01
          0                 6           2             4    7     1       0.2179387396E-03       4    7    1         0.1270157864E-01      0.3111625551E-01
          0                 7           1             4    7     1       0.3203286594E-05       5    8    1         0.1870007891E-03      0.4585811282E-03

    ------------------------------------------------
       NWT REQUIRED            7 OUTER ITERATIONS 
       AND A TOTAL OF         13 INNER ITERATIONS.
    ------------------------------------------------

 NO OUTPUT CONTROL FOR STRESS PERIOD   44   TIME STEP    2
 
 SOLVING FOR HEAD 
                                                   Max.-Head-Change                         Max.-Flux-Residual
  Residual-Control   Outer-Iter.   Inner-Iter.     Column Row Layer    Maximum-Head-Change  Column Row Layer    Maximum-Flux-Residual          L2-NORM 
          0                 1           2             5    8     1       0.1873159722E-01       5    8    1         0.1016963534E+01      0.2232473939E+01
          0                 2           2             4    7     1      -0.1143002943E+00       5    8    1        -0.6185912124E+01      0.1511956994E+02
          0                 3           2             4    7     1      -0.8663528930E-01       4    7    1        -0.4649887505E+01      0.1138478434E+02
          0                 4           2             4    7     1       0.5900359233E-02       5    8    1         0.3282081592E+00      0.7981827665E+00
          0                 5           2             4    7     1      -0.2348367065E-03       5    8    1        -0.1342211119E-01      0.3265194933E-01
          0                 6           1             4    7     1       0.2897788029E-05       5    8    1         0.1698987990E-03      0.4156095760E-03

    ------------------------------------------------
       NWT REQUIRED            6 OUTER ITERATIONS 
       AND A TOTAL OF         11 INNER ITERATIONS.
    ------------------------------------------------

 NO OUTPUT CONTROL FOR STRESS PERIOD   44   TIME STEP    3
 
 SOLVING FOR HEAD 
                                                   Max.-Head-Change                         Max.-Flux-Residual
  Residual-Control   Outer-Iter.   Inner-Iter.     Column Row Layer    Maximum-Head-Change  Column Row Layer    Maximum-Flux-Residual          L2-NORM 
          0                 1           2             5    8     1       0.2378777169E-01       5    8    1         0.1296549436E+01      0.2778478220E+01
          0                 2           2             4    8     1      -0.5413288939E-01       5    8    1        -0.2975785511E+01      0.7254985016E+01
          0                 3           2             5    6     1       0.2974327344E-02       5    8    1         0.1683226908E+00      0.4092438782E+00
          0                 4           2             4    7     1      -0.2322047157E-01       5    8    1        -0.1317034661E+01      0.3225847909E+01
          0                 5           2             4    7     1       0.2863152505E-03       4    7    1         0.1668665163E-01      0.4092596922E-01
          0                 6           1             4    7     1       0.4210904558E-05       5    7    1         0.2474161402E-03      0.6317551575E-03

    ------------------------------------------------
       NWT REQUIRED            6 OUTER ITERATIONS 
       AND A TOTAL OF         11 INNER ITERATIONS.
    ------------------------------------------------

 NO OUTPUT CONTROL FOR STRESS PERIOD   44   TIME STEP    4
 
 SOLVING FOR HEAD 
                                                   Max.-Head-Change                         Max.-Flux-Residual
  Residual-Control   Outer-Iter.   Inner-Iter.     Column Row Layer    Maximum-Head-Change  Column Row Layer    Maximum-Flux-Residual          L2-NORM 
          0                 1           2             5    8     1       0.2496017177E-01       5    8    1         0.1360569782E+01      0.2919999797E+01
          0                 2           2             4    7     1      -0.1151823130E+00       5    8    1        -0.6257617475E+01      0.1526953171E+02
          0                 3           2             4    7     1      -0.7294602667E-01       4    7    1        -0.3915192139E+01      0.9582689467E+01
          0                 4           2             4    7     1       0.4968033090E-02       4    7    1         0.2740964363E+00      0.6708153817E+00
          0                 5           2             4    7     1      -0.1977297070E-03       4    7    1        -0.1121280631E-01      0.2744245730E-01
          0                 6           1             4    7     1       0.2439902759E-05       4    7    1         0.1421776806E-03      0.3496172472E-03

    ------------------------------------------------
       NWT REQUIRED            6 OUTER ITERATIONS 
       AND A TOTAL OF         11 INNER ITERATIONS.
    ------------------------------------------------

 NO OUTPUT CONTROL FOR STRESS PERIOD   44   TIME STEP    5
 
 SOLVING FOR HEAD 
                                                   Max.-Head-Change                         Max.-Flux-Residual
  Residual-Control   Outer-Iter.   Inner-Iter.     Column Row Layer    Maximum-Head-Change  Column Row Layer    Maximum-Flux-Residual          L2-NORM 
          0                 1           2             5    8     1       0.2944794944E-01       5    8    1         0.1607515007E+01      0.3414079937E+01
          0                 2           2             5    6     1      -0.5633654214E-01       5    8    1        -0.3102631494E+01      0.7537926773E+01
          0                 3           2             4    7     1      -0.4837022445E+00       4    7    1        -0.2596081218E+02      0.6358125031E+02
          0                 4           2             4    7     1       0.3294167468E-01       4    7    1         0.1817458818E+01      0.4451678991E+01
          0                 5           2             4    7     1      -0.1311097168E-02       5    8    1        -0.7436111289E-01      0.1821465157E+00
          0                 6           1             4    7     1       0.1617838841E-04       5    8    1         0.9432562124E-03      0.2310676985E-02

    ------------------------------------------------
       NWT REQUIRED            6 OUTER ITERATIONS 
       AND A TOTAL OF         11 INNER ITERATIONS.
    ------------------------------------------------

 NO OUTPUT CONTROL FOR STRESS PERIOD   44   TIME STEP    6
 
 SOLVING FOR HEAD 
                                                   Max.-Head-Change                         Max.-Flux-Residual
  Residual-Control   Outer-Iter.   Inner-Iter.     Column Row Layer    Maximum-Head-Change  Column Row Layer    Maximum-Flux-Residual          L2-NORM 
          0                 1           2             5    8     1       0.4371147078E-01       5    8    1         0.2393582950E+01      0.5026506127E+01
          0                 2           2             5    8     1      -0.3001411483E-01       5    8    1        -0.1657696036E+01      0.3924951773E+01
          0                 3           2             4    7     1      -0.2173071351E-01       4    7    1        -0.1166517112E+01      0.2854970007E+01
          0                 4           2             4    7     1       0.2196500088E-01       4    7    1         0.1211847019E+01      0.2967399596E+01
          0                 5           2             4    7     1      -0.1803644377E-01       4    7    1        -0.1022826860E+01      0.2505379075E+01
          0                 6           2             4    7     1      -0.1533595961E-02       4    7    1        -0.8696647552E-01      0.2130117575E+00
          0                 7           2             4    7     1      -0.6980734829E-03       4    7    1        -0.3958600957E-01      0.9696406464E-01
          0                 8           1             4    7     1       0.8627519863E-05       5    8    1         0.5033638365E-03      0.1233198670E-02

    ------------------------------------------------
       NWT REQUIRED            8 OUTER ITERATIONS 
       AND A TOTAL OF         15 INNER ITERATIONS.
    ------------------------------------------------

 NO OUTPUT CONTROL FOR STRESS PERIOD   44   TIME STEP    7
 
 SOLVING FOR HEAD 
                                                   Max.-Head-Change                         Max.-Flux-Residual
  Residual-Control   Outer-Iter.   Inner-Iter.     Column Row Layer    Maximum-Head-Change  Column Row Layer    Maximum-Flux-Residual          L2-NORM 
          0                 1           2             5    8     1       0.4296193126E-01       5    8    1         0.2350760418E+01      0.4977713355E+01
          0                 2           2             4    7     1      -0.1168934766E+00       5    8    1        -0.6421195568E+01      0.1559078690E+02
          0                 3           2             4    7     1      -0.6463271057E-01       4    7    1        -0.3469071313E+01      0.8482767992E+01
          0                 4           2             4    7     1       0.4401852427E-02       4    7    1         0.2428639671E+00      0.5938210424E+00
          0                 5           2             4    7     1      -0.1751954770E-03       4    7    1        -0.9935098328E-02      0.2429389921E-01
          0                 6           1             4    7     1       0.2161839708E-05       4    7    1         0.1259736200E-03      0.3098552027E-03

    ------------------------------------------------
       NWT REQUIRED            6 OUTER ITERATIONS 
       AND A TOTAL OF         11 INNER ITERATIONS.
    ------------------------------------------------

 NO OUTPUT CONTROL FOR STRESS PERIOD   44   TIME STEP    8
 
 SOLVING FOR HEAD 
                                                   Max.-Head-Change                         Max.-Flux-Residual
  Residual-Control   Outer-Iter.   Inner-Iter.     Column Row Layer    Maximum-Head-Change  Column Row Layer    Maximum-Flux-Residual          L2-NORM 
          0                 1           2             5    8     1       0.4626920900E-01       5    8    1         0.2531864992E+01      0.5384788386E+01
          0                 2           2             4    8     1      -0.1122527448E+00       5    8    1        -0.6176698199E+01      0.1498230155E+02
          0                 3           2             5    6     1       0.5163686417E-02       5    8    1         0.2926002617E+00      0.7069429638E+00
          0                 4           2             5    6     1      -0.2054680286E-03       5    8    1        -0.1196905410E-01      0.2891065957E-01
          0                 5           1             5    6     1       0.2533505967E-05       5    8    1         0.1518476874E-03      0.3670370435E-03

    ------------------------------------------------
       NWT REQUIRED            5 OUTER ITERATIONS 
       AND A TOTAL OF          9 INNER ITERATIONS.
    ------------------------------------------------

 NO OUTPUT CONTROL FOR STRESS PERIOD   44   TIME STEP    9
 
 SOLVING FOR HEAD 
                                                   Max.-Head-Change                         Max.-Flux-Residual
  Residual-Control   Outer-Iter.   Inner-Iter.     Column Row Layer    Maximum-Head-Change  Column Row Layer    Maximum-Flux-Residual          L2-NORM 
          0                 1           2             5    8     1       0.4724369145E-01       5    8    1         0.2584189191E+01      0.5530846886E+01
          0                 2           2             4    7     1      -0.1249349284E+00       5    8    1        -0.6862875455E+01      0.1666252971E+02
          0                 3           2             4    7     1      -0.6835798045E-02       4    7    1        -0.3671016441E+00      0.8847836029E+00
          0                 4           2             4    7     1       0.4655586612E-03       4    7    1         0.2570170877E-01      0.6188682216E-01
          0                 5           1             4    7     1      -0.1852940924E-04       4    7    1        -0.1051487763E-02      0.2532930405E-02

    ------------------------------------------------
       NWT REQUIRED            5 OUTER ITERATIONS 
       AND A TOTAL OF          9 INNER ITERATIONS.
    ------------------------------------------------

 NO OUTPUT CONTROL FOR STRESS PERIOD   44   TIME STEP   10
 
 SOLVING FOR HEAD 
                                                   Max.-Head-Change                         Max.-Flux-Residual
  Residual-Control   Outer-Iter.   Inner-Iter.     Column Row Layer    Maximum-Head-Change  Column Row Layer    Maximum-Flux-Residual          L2-NORM 
          0                 1           2             5    8     1       0.4892765968E-01       5    8    1         0.2675685533E+01      0.5756602805E+01
          0                 2           2             5    7     1      -0.1244452446E+00       5    8    1        -0.6837677410E+01      0.1659872318E+02
          0                 3           2             4    7     1      -0.5197491112E-02       4    7    1        -0.2791770915E+00      0.6695991669E+00
          0                 4           2             4    7     1       0.3539802242E-03       4    7    1         0.1954606258E-01      0.4680306342E-01
          0                 5           1             4    7     1      -0.1408854541E-04       4    7    1        -0.7996596080E-03      0.1915957040E-02

    ------------------------------------------------
       NWT REQUIRED            5 OUTER ITERATIONS 
       AND A TOTAL OF          9 INNER ITERATIONS.
    ------------------------------------------------

 NO OUTPUT CONTROL FOR STRESS PERIOD   44   TIME STEP   11
 
 SOLVING FOR HEAD 
                                                   Max.-Head-Change                         Max.-Flux-Residual
  Residual-Control   Outer-Iter.   Inner-Iter.     Column Row Layer    Maximum-Head-Change  Column Row Layer    Maximum-Flux-Residual          L2-NORM 
          0                 1           2             5    8     1       0.5047254904E-01       5    8    1         0.2759503284E+01      0.5967055270E+01
          0                 2           2             5    7     1      -0.1248526466E+00       5    8    1        -0.6860227308E+01      0.1665247691E+02
          0                 3           2             4    7     1      -0.5672757957E-02       4    7    1        -0.3046870847E+00      0.7316764420E+00
          0                 4           2             4    7     1       0.3863487216E-03       4    7    1         0.2133208159E-01      0.5115641817E-01
          0                 5           1             4    7     1      -0.1537682372E-04       4    7    1        -0.8727278271E-03      0.2094243934E-02

    ------------------------------------------------
       NWT REQUIRED            5 OUTER ITERATIONS 
       AND A TOTAL OF          9 INNER ITERATIONS.
    ------------------------------------------------

 NO OUTPUT CONTROL FOR STRESS PERIOD   44   TIME STEP   12
 
 SOLVING FOR HEAD 
                                                   Max.-Head-Change                         Max.-Flux-Residual
  Residual-Control   Outer-Iter.   Inner-Iter.     Column Row Layer    Maximum-Head-Change  Column Row Layer    Maximum-Flux-Residual          L2-NORM 
          0                 1           2             5    8     1       0.5197530775E-01       5    8    1         0.2840997048E+01      0.6172947926E+01
          0                 2           2             5    7     1      -0.1249331104E+00       5    8    1        -0.6864950944E+01      0.1666283983E+02
          0                 3           2             4    7     1      -0.5546960547E-02       4    7    1        -0.2979375005E+00      0.7149819695E+00
          0                 4           2             4    7     1       0.3777811692E-03       4    7    1         0.2085957415E-01      0.4997741867E-01
          0                 5           1             4    7     1      -0.1503583205E-04       4    7    1        -0.8533988889E-03      0.2044422289E-02

    ------------------------------------------------
       NWT REQUIRED            5 OUTER ITERATIONS 
       AND A TOTAL OF          9 INNER ITERATIONS.
    ------------------------------------------------

 NO OUTPUT CONTROL FOR STRESS PERIOD   44   TIME STEP   13
 
 SOLVING FOR HEAD 
                                                   Max.-Head-Change                         Max.-Flux-Residual
  Residual-Control   Outer-Iter.   Inner-Iter.     Column Row Layer    Maximum-Head-Change  Column Row Layer    Maximum-Flux-Residual          L2-NORM 
          0                 1           2             5    8     1       0.5341110709E-01       5    8    1         0.2918797577E+01      0.6371386563E+01
          0                 2           2             5    7     1      -0.1250883976E+00       5    8    1        -0.6873564367E+01      0.1668305904E+02
          0                 3           2             4    7     1      -0.5567367636E-02       4    7    1        -0.2990340744E+00      0.7174941641E+00
          0                 4           2             4    7     1       0.3791710127E-03       4    7    1         0.2093638317E-01      0.5015318190E-01
          0                 5           1             4    7     1      -0.1509114873E-04       4    7    1        -0.8565426479E-03      0.2051655949E-02

    ------------------------------------------------
       NWT REQUIRED            5 OUTER ITERATIONS 
       AND A TOTAL OF          9 INNER ITERATIONS.
    ------------------------------------------------

 NO OUTPUT CONTROL FOR STRESS PERIOD   44   TIME STEP   14
 
 SOLVING FOR HEAD 
                                                   Max.-Head-Change                         Max.-Flux-Residual
  Residual-Control   Outer-Iter.   Inner-Iter.     Column Row Layer    Maximum-Head-Change  Column Row Layer    Maximum-Flux-Residual          L2-NORM 
          0                 1           2             5    8     1       0.5479021558E-01       5    8    1         0.2993473934E+01      0.6563468422E+01
          0                 2           2             5    7     1      -0.1252212413E+00       5    8    1        -0.6880828729E+01      0.1670025588E+02
          0                 3           2             4    7     1      -0.5552239009E-02       4    7    1        -0.2982229299E+00      0.7153783064E+00
          0                 4           2             4    7     1       0.3760663258E-03       4    7    1         0.2076518902E-01      0.4972428395E-01
          0                 5           1             4    7     1      -0.1496758067E-04       4    7    1        -0.8495403936E-03      0.2034133390E-02

    ------------------------------------------------
       NWT REQUIRED            5 OUTER ITERATIONS 
       AND A TOTAL OF          9 INNER ITERATIONS.
    ------------------------------------------------

 NO OUTPUT CONTROL FOR STRESS PERIOD   44   TIME STEP   15
 
 SOLVING FOR HEAD 
                                                   Max.-Head-Change                         Max.-Flux-Residual
  Residual-Control   Outer-Iter.   Inner-Iter.     Column Row Layer    Maximum-Head-Change  Column Row Layer    Maximum-Flux-Residual          L2-NORM 
          0                 1           2             5    8     1       0.5611442250E-01       5    8    1         0.3065126123E+01      0.6749310105E+01
          0                 2           2             5    7     1      -0.1253545301E+00       5    8    1        -0.6887993807E+01      0.1671746964E+02
          0                 3           2             4    7     1      -0.5544072790E-02       4    7    1        -0.2977849635E+00      0.7142054827E+00
          0                 4           2             4    7     1       0.3755101522E-03       4    7    1         0.2073456141E-01      0.4963783118E-01
          0                 5           1             4    7     1      -0.1494544465E-04       4    7    1        -0.8482887854E-03      0.2029901407E-02

    ------------------------------------------------
       NWT REQUIRED            5 OUTER ITERATIONS 
       AND A TOTAL OF          9 INNER ITERATIONS.
    ------------------------------------------------

 NO OUTPUT CONTROL FOR STRESS PERIOD   44   TIME STEP   16
 
 SOLVING FOR HEAD 
                                                   Max.-Head-Change                         Max.-Flux-Residual
  Residual-Control   Outer-Iter.   Inner-Iter.     Column Row Layer    Maximum-Head-Change  Column Row Layer    Maximum-Flux-Residual          L2-NORM 
          0                 1           2             5    8     1       0.5738705009E-01       5    8    1         0.3133938870E+01      0.6929223616E+01
          0                 2           2             5    7     1      -0.1254846158E+00       5    8    1        -0.6894874943E+01      0.1673422306E+02
          0                 3           2             4    7     1      -0.5535936240E-02       4    7    1        -0.2973481378E+00      0.7130636731E+00
          0                 4           2             4    7     1       0.3749559991E-03       4    7    1         0.2070401273E-01      0.4955695579E-01
          0                 5           1             4    7     1      -0.1492338945E-04       4    7    1        -0.8470403825E-03      0.2026582488E-02

    ------------------------------------------------
       NWT REQUIRED            5 OUTER ITERATIONS 
       AND A TOTAL OF          9 INNER ITERATIONS.
    ------------------------------------------------

 NO OUTPUT CONTROL FOR STRESS PERIOD   44   TIME STEP   17
 
 SOLVING FOR HEAD 
                                                   Max.-Head-Change                         Max.-Flux-Residual
  Residual-Control   Outer-Iter.   Inner-Iter.     Column Row Layer    Maximum-Head-Change  Column Row Layer    Maximum-Flux-Residual          L2-NORM 
          0                 1           2             5    8     1       0.5861078121E-01       5    8    1         0.3200061387E+01      0.7103475404E+01
          0                 2           2             5    7     1      -0.1256116096E+00       5    8    1        -0.6901487056E+01      0.1675053353E+02
          0                 3           2             4    7     1      -0.5527837730E-02       4    7    1        -0.2969129426E+00      0.7119519344E+00
          0                 4           2             4    7     1       0.3744044371E-03       4    7    1         0.2067357730E-01      0.4947835213E-01
          0                 5           1             4    7     1      -0.1490143695E-04       4    7    1        -0.8457965737E-03      0.2023361114E-02

    ------------------------------------------------
       NWT REQUIRED            5 OUTER ITERATIONS 
       AND A TOTAL OF          9 INNER ITERATIONS.
    ------------------------------------------------

 NO OUTPUT CONTROL FOR STRESS PERIOD   44   TIME STEP   18
 
 SOLVING FOR HEAD 
                                                   Max.-Head-Change                         Max.-Flux-Residual
  Residual-Control   Outer-Iter.   Inner-Iter.     Column Row Layer    Maximum-Head-Change  Column Row Layer    Maximum-Flux-Residual          L2-NORM 
          0                 1           2             5    8     1       0.5978854500E-01       5    8    1         0.3263656254E+01      0.7272328228E+01
          0                 2           2             5    7     1      -0.1257355764E+00       5    8    1        -0.6907846407E+01      0.1676641799E+02
          0                 3           2             4    7     1      -0.5519782180E-02       4    7    1        -0.2964796722E+00      0.7108685633E+00
          0                 4           2             4    7     1       0.3738558005E-03       4    7    1         0.2064327570E-01      0.4940163035E-01
          0                 5           1             4    7     1      -0.1487960084E-04       4    7    1        -0.8445581902E-03      0.2020213829E-02

    ------------------------------------------------
       NWT REQUIRED            5 OUTER ITERATIONS 
       AND A TOTAL OF          9 INNER ITERATIONS.
    ------------------------------------------------

 NO OUTPUT CONTROL FOR STRESS PERIOD   44   TIME STEP   19
 
 SOLVING FOR HEAD 
                                                   Max.-Head-Change                         Max.-Flux-Residual
  Residual-Control   Outer-Iter.   Inner-Iter.     Column Row Layer    Maximum-Head-Change  Column Row Layer    Maximum-Flux-Residual          L2-NORM 
          0                 1           2             5    8     1       0.6092278847E-01       5    8    1         0.3324859739E+01      0.7436016997E+01
          0                 2           2             5    7     1      -0.1258565946E+00       5    8    1        -0.6913966620E+01      0.1678189097E+02
          0                 3           2             4    7     1      -0.5511778542E-02       4    7    1        -0.2960488440E+00      0.7098135574E+00
          0                 4           2             4    7     1       0.3733106996E-03       4    7    1         0.2061314417E-01      0.4932698755E-01
          0                 5           1             4    7     1      -0.1485790576E-04       4    7    1        -0.8433267446E-03      0.2017152910E-02

    ------------------------------------------------
       NWT REQUIRED            5 OUTER ITERATIONS 
       AND A TOTAL OF          9 INNER ITERATIONS.
    ------------------------------------------------

 NO OUTPUT CONTROL FOR STRESS PERIOD   44   TIME STEP   20
 
 SOLVING FOR HEAD 
                                                   Max.-Head-Change                         Max.-Flux-Residual
  Residual-Control   Outer-Iter.   Inner-Iter.     Column Row Layer    Maximum-Head-Change  Column Row Layer    Maximum-Flux-Residual          L2-NORM 
          0                 1           2             5    8     1       0.6201565864E-01       5    8    1         0.3383790928E+01      0.7594777395E+01
          0                 2           2             5    7     1      -0.1259747706E+00       5    8    1        -0.6919859606E+01      0.1679696902E+02
          0                 3           2             4    7     1      -0.5503829539E-02       4    7    1        -0.2956206302E+00      0.7087848265E+00
          0                 4           2             4    7     1       0.3727693200E-03       4    7    1         0.2058319485E-01      0.4925412609E-01
          0                 5           1             4    7     1      -0.1483635828E-04       4    7    1        -0.8421027019E-03      0.2014169514E-02

    ------------------------------------------------
       NWT REQUIRED            5 OUTER ITERATIONS 
       AND A TOTAL OF          9 INNER ITERATIONS.
    ------------------------------------------------

 NO OUTPUT CONTROL FOR STRESS PERIOD   44   TIME STEP   21
 
 SOLVING FOR HEAD 
                                                   Max.-Head-Change                         Max.-Flux-Residual
  Residual-Control   Outer-Iter.   Inner-Iter.     Column Row Layer    Maximum-Head-Change  Column Row Layer    Maximum-Flux-Residual          L2-NORM 
          0                 1           2             5    8     1       0.6306944588E-01       5    8    1         0.3440576750E+01      0.7748826461E+01
          0                 2           2             5    7     1      -0.1260901920E+00       5    8    1        -0.6925538057E+01      0.1681166559E+02
          0                 3           2             4    7     1      -0.5495942008E-02       4    7    1        -0.2951954309E+00      0.7077821716E+00
          0                 4           2             4    7     1       0.3722321272E-03       4    7    1         0.2055345570E-01      0.4918319448E-01
          0                 5           1             4    7     1      -0.1481497796E-04       4    7    1        -0.8408872391E-03      0.2011253055E-02

    ------------------------------------------------
       NWT REQUIRED            5 OUTER ITERATIONS 
       AND A TOTAL OF          9 INNER ITERATIONS.
    ------------------------------------------------

 NO OUTPUT CONTROL FOR STRESS PERIOD   44   TIME STEP   22
 
 SOLVING FOR HEAD 
                                                   Max.-Head-Change                         Max.-Flux-Residual
  Residual-Control   Outer-Iter.   Inner-Iter.     Column Row Layer    Maximum-Head-Change  Column Row Layer    Maximum-Flux-Residual          L2-NORM 
          0                 1           2             5    8     1       0.6408643080E-01       5    8    1         0.3495343757E+01      0.7898363616E+01
          0                 2           2             5    7     1      -0.1262029013E+00       5    8    1        -0.6931014628E+01      0.1682599428E+02
          0                 3           2             4    7     1      -0.5488120414E-02       4    7    1        -0.2947735093E+00      0.7068040523E+00
          0                 4           2             4    7     1       0.3716994250E-03       4    7    1         0.2052394516E-01      0.4911398317E-01
          0                 5           1             4    7     1      -0.1479377656E-04       4    7    1        -0.8396810993E-03      0.2008414513E-02

    ------------------------------------------------
       NWT REQUIRED            5 OUTER ITERATIONS 
       AND A TOTAL OF          9 INNER ITERATIONS.
    ------------------------------------------------

 NO OUTPUT CONTROL FOR STRESS PERIOD   44   TIME STEP   23
 
 SOLVING FOR HEAD 
                                                   Max.-Head-Change                         Max.-Flux-Residual
  Residual-Control   Outer-Iter.   Inner-Iter.     Column Row Layer    Maximum-Head-Change  Column Row Layer    Maximum-Flux-Residual          L2-NORM 
          0                 1           2             5    8     1       0.6506818164E-01       5    8    1         0.3548179012E+01      0.8043590216E+01
          0                 2           2             5    7     1      -0.1263130271E+00       5    8    1        -0.6936298026E+01      0.1683996856E+02
          0                 3           2             4    7     1      -0.5480368675E-02       4    7    1        -0.2943551037E+00      0.7058497750E+00
          0                 4           2             4    7     1       0.3711714800E-03       4    7    1         0.2049467993E-01      0.4904638586E-01
          0                 5           1             4    7     1      -0.1477276385E-04       4    7    1        -0.8384849375E-03      0.2005649483E-02

    ------------------------------------------------
       NWT REQUIRED            5 OUTER ITERATIONS 
       AND A TOTAL OF          9 INNER ITERATIONS.
    ------------------------------------------------

 NO OUTPUT CONTROL FOR STRESS PERIOD   44   TIME STEP   24
 
 SOLVING FOR HEAD 
                                                   Max.-Head-Change                         Max.-Flux-Residual
  Residual-Control   Outer-Iter.   Inner-Iter.     Column Row Layer    Maximum-Head-Change  Column Row Layer    Maximum-Flux-Residual          L2-NORM 
          0                 1           2             5    8     1       0.6601672815E-01       5    8    1         0.3599195024E+01      0.8184679352E+01
          0                 2           2             5    7     1      -0.1264205922E+00       5    8    1        -0.6941399502E+01      0.1685359977E+02
          0                 3           2             4    7     1      -0.5472690360E-02       4    7    1        -0.2939404236E+00      0.7049187769E+00
          0                 4           2             4    7     1       0.3706485362E-03       4    7    1         0.2046567474E-01      0.4898055628E-01
          0                 5           1             4    7     1      -0.1475195077E-04       4    7    1        -0.8372993877E-03      0.2002950390E-02

    ------------------------------------------------
       NWT REQUIRED            5 OUTER ITERATIONS 
       AND A TOTAL OF          9 INNER ITERATIONS.
    ------------------------------------------------

 NO OUTPUT CONTROL FOR STRESS PERIOD   44   TIME STEP   25
 
 SOLVING FOR HEAD 
                                                   Max.-Head-Change                         Max.-Flux-Residual
  Residual-Control   Outer-Iter.   Inner-Iter.     Column Row Layer    Maximum-Head-Change  Column Row Layer    Maximum-Flux-Residual          L2-NORM 
          0                 1           2             5    8     1       0.6693369517E-01       5    8    1         0.3648481443E+01      0.8321826381E+01
          0                 2           2             5    7     1      -0.1265257213E+00       5    8    1        -0.6946328021E+01      0.1686690243E+02
          0                 3           2             4    7     1      -0.5465087617E-02       4    7    1        -0.2935296084E+00      0.7040096442E+00
          0                 4           2             4    7     1       0.3701307393E-03       4    7    1         0.2043693932E-01      0.4891615391E-01
          0                 5           1             4    7     1      -0.1473134217E-04       4    7    1        -0.8361248547E-03      0.2000306048E-02

    ------------------------------------------------
       NWT REQUIRED            5 OUTER ITERATIONS 
       AND A TOTAL OF          9 INNER ITERATIONS.
    ------------------------------------------------

 NO OUTPUT CONTROL FOR STRESS PERIOD   44   TIME STEP   26
 
 SOLVING FOR HEAD 
                                                   Max.-Head-Change                         Max.-Flux-Residual
  Residual-Control   Outer-Iter.   Inner-Iter.     Column Row Layer    Maximum-Head-Change  Column Row Layer    Maximum-Flux-Residual          L2-NORM 
          0                 1           2             5    8     1       0.6782074036E-01       5    8    1         0.3696130317E+01      0.8455176013E+01
          0                 2           2             5    7     1      -0.1266284471E+00       5    8    1        -0.6951092787E+01      0.1687988585E+02
          0                 3           2             4    7     1      -0.5457565953E-02       4    7    1        -0.2931229763E+00      0.7031224528E+00
          0                 4           2             4    7     1       0.3696184647E-03       4    7    1         0.2040849599E-01      0.4885342030E-01
          0                 5           1             4    7     1      -0.1471095368E-04       4    7    1        -0.8349622376E-03      0.1997739525E-02

    ------------------------------------------------
       NWT REQUIRED            5 OUTER ITERATIONS 
       AND A TOTAL OF          9 INNER ITERATIONS.
    ------------------------------------------------

 NO OUTPUT CONTROL FOR STRESS PERIOD   44   TIME STEP   27
 
 SOLVING FOR HEAD 
                                                   Max.-Head-Change                         Max.-Flux-Residual
  Residual-Control   Outer-Iter.   Inner-Iter.     Column Row Layer    Maximum-Head-Change  Column Row Layer    Maximum-Flux-Residual          L2-NORM 
          0                 1           2             5    8     1       0.6867927376E-01       5    8    1         0.3742219805E+01      0.8584886239E+01
          0                 2           2             5    7     1      -0.1267288600E+00       5    8    1        -0.6955701617E+01      0.1689255019E+02
          0                 3           2             4    7     1      -0.5461044571E-02       4    7    1        -0.2933065494E+00      0.7036853144E+00
          0                 4           2             4    7     1       0.3719297751E-03       4    7    1         0.2053581364E-01      0.4917252818E-01
          0                 5           1             4    7     1      -0.1480294460E-04       4    7    1        -0.8401718683E-03      0.2010795820E-02

    ------------------------------------------------
       NWT REQUIRED            5 OUTER ITERATIONS 
       AND A TOTAL OF          9 INNER ITERATIONS.
    ------------------------------------------------

 NO OUTPUT CONTROL FOR STRESS PERIOD   44   TIME STEP   28
 
 SOLVING FOR HEAD 
                                                   Max.-Head-Change                         Max.-Flux-Residual
  Residual-Control   Outer-Iter.   Inner-Iter.     Column Row Layer    Maximum-Head-Change  Column Row Layer    Maximum-Flux-Residual          L2-NORM 
          0                 1           2             5    8     1       0.6950732301E-01       5    8    1         0.3786845824E+01      0.8705422523E+01
          0                 2           2             5    7     1      -0.1268515467E+00       5    8    1        -0.6961512060E+01      0.1689889839E+02
          0                 3           2             4    7     1      -0.1728012569E-01       4    7    1        -0.9276060130E+00      0.2255661291E+01
          0                 4           2             4    7     1       0.1176878683E-02       4    7    1         0.6494373737E-01      0.1579275341E+00
          0                 5           1             4    7     1      -0.4684021765E-04       4    7    1        -0.2656917681E-02      0.6462172598E-02

    ------------------------------------------------
       NWT REQUIRED            5 OUTER ITERATIONS 
       AND A TOTAL OF          9 INNER ITERATIONS.
    ------------------------------------------------

 NO OUTPUT CONTROL FOR STRESS PERIOD   44   TIME STEP   29
 
 SOLVING FOR HEAD 
                                                   Max.-Head-Change                         Max.-Flux-Residual
  Residual-Control   Outer-Iter.   Inner-Iter.     Column Row Layer    Maximum-Head-Change  Column Row Layer    Maximum-Flux-Residual          L2-NORM 
          0                 1           2             5    8     1       0.7065179875E-01       5    8    1         0.3848732706E+01      0.8866003156E+01
          0                 2           2             4    7     1      -0.1523802156E+00       5    8    1        -0.8340472332E+01      0.2027471484E+02
          0                 3           2             4    7     1       0.2812505879E-01       5    8    1         0.1562990511E+01      0.3817257808E+01
          0                 4           2             4    7     1      -0.1119126680E-02       5    8    1        -0.6391376667E-01      0.1561066480E+00
          0                 5           1             4    7     1       0.1379931026E-04       5    8    1         0.8091118727E-03      0.1978356655E-02

    ------------------------------------------------
       NWT REQUIRED            5 OUTER ITERATIONS 
       AND A TOTAL OF          9 INNER ITERATIONS.
    ------------------------------------------------

 NO OUTPUT CONTROL FOR STRESS PERIOD   44   TIME STEP   30



 STREAM LISTING     PERIOD     44   STEP       30

 LAYER ROW COL. STREAM  RCH.  FLOW INTO     FLOW TO   FLOW OUT OF   OVRLND.     DIRECT     STREAM       STREAM     STREAM     STREAM   STREAMBED  STREAMBED
                SEG.NO.  NO.  STRM. RCH.    AQUIFER    STRM. RCH.    RUNOFF     PRECIP       ET          HEAD       DEPTH      WIDTH   CONDCTNC.   GRADIENT

   1    1    1     1     1    1.3875E+01  1.7894E-01   1.3696E+01  0.000E+00  0.000E+00  0.000E+00  1.09404E+03  9.876E-01  9.972E+00  4.487E-02  1.329E+00
   1    2    2     1     2    1.3696E+01  2.7573E-01   1.3420E+01  0.000E+00  0.000E+00  0.000E+00  1.08904E+03  9.829E-01  9.890E+00  6.923E-02  1.328E+00
   1    3    3     1     3    1.3420E+01  2.3380E-01   1.3186E+01  0.000E+00  0.000E+00  0.000E+00  1.08340E+03  9.775E-01  9.797E+00  5.878E-02  1.326E+00
   1    3    4     1     4    1.3186E+01  2.1419E-01   1.2972E+01  0.000E+00  0.000E+00  0.000E+00  1.07838E+03  9.727E-01  9.714E+00  5.391E-02  1.324E+00
   1    4    5     2     1    1.0972E+01  2.9101E-01   1.0681E+01  0.000E+00  0.000E+00  0.000E+00  1.07266E+03  7.309E-01  1.200E+01  7.800E-02  1.244E+00
   1    5    6     2     2    1.0681E+01  2.2322E-01   1.0458E+01  0.000E+00  0.000E+00  0.000E+00  1.06723E+03  7.204E-01  1.200E+01  6.000E-02  1.240E+00
   1    6    6     2     3    1.0458E+01  2.2267E-01   1.0235E+01  0.000E+00  0.000E+00  0.000E+00  1.06250E+03  7.112E-01  1.200E+01  6.000E-02  1.237E+00
   1    7    6     2     4    1.0235E+01  2.2212E-01   1.0013E+01  0.000E+00  0.000E+00  0.000E+00  1.05778E+03  7.020E-01  1.200E+01  6.000E-02  1.234E+00
   1    8    6     2     5    1.0013E+01  2.2157E-01   9.7913E+00  0.000E+00  0.000E+00  0.000E+00  1.05305E+03  6.928E-01  1.200E+01  6.000E-02  1.231E+00
   1    3    5     3     1    2.0000E+00  2.8252E-01   1.7175E+00  0.000E+00  0.000E+00  0.000E+00  1.07555E+03  1.909E+00  9.636E+00  7.227E-02  1.955E+00
   1    3    6     3     2    1.7175E+00  2.4905E-01   1.4684E+00  0.000E+00  0.000E+00  0.000E+00  1.07264E+03  1.727E+00  8.909E+00  6.682E-02  1.864E+00
   1    3    7     3     3    1.4684E+00  1.9718E-01   1.2712E+00  0.000E+00  0.000E+00  0.000E+00  1.06987E+03  1.555E+00  8.218E+00  5.547E-02  1.777E+00
   1    4    8     3     4    1.2712E+00  2.2567E-01   1.0456E+00  0.000E+00  0.000E+00  0.000E+00  1.06682E+03  1.364E+00  7.455E+00  6.709E-02  1.682E+00
   1    5    8     3     5    1.0456E+00  1.5790E-01   8.8768E-01  0.000E+00  0.000E+00  0.000E+00  1.06362E+03  1.164E+00  6.655E+00  4.991E-02  1.582E+00
   1    6    8     3     6    8.8768E-01  5.5980E-02   8.3170E-01  0.000E+00  0.000E+00  0.000E+00  1.06158E+03  1.036E+00  6.145E+00  1.844E-02  1.518E+00
   1    5   10     4     1    1.0000E+01  9.0919E-02   9.9091E+00  0.000E+00  0.000E+00  0.000E+00  1.07836E+03  6.368E-01  1.000E+01  2.500E-02  1.212E+00
   1    5    9     4     2    9.9091E+00  1.8158E-01   9.7275E+00  0.000E+00  0.000E+00  0.000E+00  1.07154E+03  6.315E-01  1.000E+01  5.000E-02  1.211E+00
   1    6    8     4     3    9.7275E+00  1.2689E-01   9.6006E+00  0.000E+00  0.000E+00  0.000E+00  1.06381E+03  6.256E-01  1.000E+01  3.500E-02  1.209E+00
   1    6    8     5     1    1.0432E+01  2.2686E-01   1.0205E+01  0.000E+00  0.000E+00  0.000E+00  1.05868E+03  6.790E-01  1.542E+01  6.166E-02  1.226E+00
   1    7    7     5     2    1.0205E+01  2.7894E-01   9.9265E+00  0.000E+00  0.000E+00  0.000E+00  1.05417E+03  6.732E-01  1.519E+01  7.594E-02  1.224E+00
   1    8    7     5     3    9.9265E+00  1.9221E-01   9.7343E+00  0.000E+00  0.000E+00  0.000E+00  1.04992E+03  6.676E-01  1.497E+01  5.241E-02  1.223E+00
   1    8    6     5     4    9.7343E+00  1.3577E-01   9.5985E+00  0.000E+00  0.000E+00  0.000E+00  1.04691E+03  6.637E-01  1.482E+01  3.706E-02  1.221E+00
   1    9    6     6     1    9.5985E+00  2.2097E-01   9.3776E+00  0.000E+00  0.000E+00  0.000E+00  1.04341E+03  6.828E-01  1.200E+01  6.000E-02  1.228E+00
   1   10    7     6     2    9.3776E+00  2.2039E-01   9.1572E+00  0.000E+00  0.000E+00  0.000E+00  1.03885E+03  6.732E-01  1.200E+01  6.000E-02  1.224E+00
   1   11    7     6     3    9.1572E+00  2.1981E-01   8.9374E+00  0.000E+00  0.000E+00  0.000E+00  1.03430E+03  6.636E-01  1.200E+01  6.000E-02  1.221E+00
   1   12    7     6     4    8.9374E+00  2.1923E-01   8.7181E+00  0.000E+00  0.000E+00  0.000E+00  1.02974E+03  6.539E-01  1.200E+01  6.000E-02  1.218E+00
   1   13    7     6     5    8.7181E+00  3.1205E-03   8.7150E+00  0.000E+00  0.000E+00  0.000E+00  1.02656E+03  6.489E-01  1.200E+01  2.400E-02  4.334E-02
   1   14    9     7     1    1.5000E+02  1.4056E+00   1.4859E+02  0.000E+00  0.000E+00  0.000E+00  1.03987E+03  2.288E+00  5.529E+01  5.593E-01  8.377E-01
   1   13    8     7     2    1.4859E+02  2.0476E+00   1.4655E+02  0.000E+00  0.000E+00  0.000E+00  1.03478E+03  2.278E+00  5.525E+01  6.147E-01  1.110E+00
   1   13    7     7     3    1.4655E+02  1.8198E+00   1.4473E+02  0.000E+00  0.000E+00  0.000E+00  1.02969E+03  2.268E+00  5.521E+01  5.583E-01  1.086E+00
   1   13    6     8     1    1.5344E+02  1.1638E+00   1.5228E+02  0.000E+00  0.000E+00  0.000E+00  1.02471E+03  2.837E+00  4.113E+01  4.192E-01  9.254E-01
   1   13    5     8     2    1.5228E+02  4.1002E-01   1.5187E+02  0.000E+00  0.000E+00  0.000E+00  1.01846E+03  2.831E+00  4.105E+01  4.184E-01  3.267E-01
   1   13    4     8     3    1.5187E+02 -1.6173E+00   1.5349E+02  0.000E+00  0.000E+00  0.000E+00  1.01221E+03  2.836E+00  4.112E+01  4.190E+00 -1.287E-01
   1   13    3     8     4    1.5349E+02 -3.2326E+00   1.5672E+02  0.000E+00  0.000E+00  0.000E+00  1.00598E+03  2.852E+00  4.136E+01  4.215E+00 -2.557E-01
   1   13    2     8     5    1.5672E+02 -2.4786E+00   1.5920E+02  0.000E+00  0.000E+00  0.000E+00  9.99747E+02  2.872E+00  4.164E+01  4.244E+00 -1.947E-01
   1   13    1     8     6    1.5920E+02 -1.9636E+00   1.6116E+02  0.000E+00  0.000E+00  0.000E+00  9.94762E+02  2.887E+00  4.186E+01  2.560E+00 -2.557E-01
   1    8    6     9     1    9.7913E+00  0.0000E+00   9.7913E+00  0.000E+00  0.000E+00  0.000E+00  1.08099E+03  2.238E+00  4.000E+00  0.000E+00  1.746E+00
   1    8    5     9     2    9.7913E+00  0.0000E+00   9.7913E+00  0.000E+00  0.000E+00  0.000E+00  1.08049E+03  2.238E+00  4.000E+00  0.000E+00  1.746E+00





UNSATURATED ZONE PACKAGE VOLUMETRIC BUDGET FOR  TIME STEP    30 STRESS PERIOD   44
  ------------------------------------------------------------------------------



     CUMULATIVE VOLUMES      L**3       RATES FOR THIS TIME STEP      L**3/T
     ------------------                 ------------------------

           IN:                                      IN:
           ---                                      ---
        INFILTRATION =  2018592844.5370          INFILTRATION =          52.4977

          OUT:                                     OUT:
          ----                                     ----
              UZF ET =  1535641312.2316                UZF ET =          60.8175
        UZF RECHARGE =   128126054.9296          UZF RECHARGE =       0.0000E+00

            IN - OUT =   354825477.3758              IN - OUT =          -8.3198

          STORAGE:                                 STORAGE:
          --------                                 --------
      STORAGE CHANGE =   354825725.7949        STORAGE CHANGE =          -8.3198

 PERCENT DISCREPANCY IS DIFFERENCE BETWEEN IN-OUT MINUS CHANGE IN STORAGE
 DIVIDED BY THE AVERAGE OF IN AND OUT TIMES 100

 PERCENT DISCREPANCY =          -0.00     PERCENT DISCREPANCY =           0.00






1
  VOLUMETRIC BUDGET FOR AGRICULTURAL FIELDS AT  END OF TIME STEP   30, STRESS PERIOD  44
  ------------------------------------------------------------------------------

     CUMULATIVE VOLUMES      L**3       RATES FOR THIS TIME STEP      L**3/T
     ------------------                 ------------------------

           IN:                                      IN:
           ---                                      ---
               AG WELLS  =  1230251136.0000                 AG WELLS  =          41.8586
      DIVERSION SEGMENTS =   692529408.0000        DIVERSION SEGMENTS =           9.7913
       IRRIGATION PONDS  =           0.0000         IRRIGATION PONDS  =           0.0000
           GW IRRIGATION =           0.0000             GW IRRIGATION =           0.0000
           SW IRRIGATION =           0.0000             SW IRRIGATION =           0.0000
        SYSTEM LOSSES GW =           0.0000          SYSTEM LOSSES GW =           0.0000
        SYSTEM LOSSES SW =           0.0000          SYSTEM LOSSES SW =           0.0000

                TOTAL IN =  1922780544.0000                  TOTAL IN =          51.6500

          OUT:                                     OUT:
          ----                                     ----
               AG WELLS  =           0.0000                 AG WELLS  =           0.0000
      DIVERSION SEGMENTS =           0.0000        DIVERSION SEGMENTS =           0.0000
       IRRIGATION PONDS  =           0.0000         IRRIGATION PONDS  =           0.0000
           GW IRRIGATION =  1230251136.0000             GW IRRIGATION =          41.8586
           SW IRRIGATION =   692542336.0000             SW IRRIGATION =           9.7915
        SYSTEM LOSSES GW =           0.0000          SYSTEM LOSSES GW =           0.0000
        SYSTEM LOSSES SW =           0.0000          SYSTEM LOSSES SW =           0.0000

               TOTAL OUT =  1922793472.0000                 TOTAL OUT =          51.6502

                IN - OUT =      -12928.0000                  IN - OUT =      -1.9836E-04

     PERCENT DISCREPANCY =          -0.00         PERCENT DISCREPANCY =          -0.00



1
  VOLUMETRIC BUDGET FOR ENTIRE MODEL AT END OF TIME STEP   30, STRESS PERIOD  44
  ------------------------------------------------------------------------------

     CUMULATIVE VOLUMES      L**3       RATES FOR THIS TIME STEP      L**3/T
     ------------------                 ------------------------

           IN:                                      IN:
           ---                                      ---
             STORAGE     =  1812824064.0000               STORAGE     =          39.0498
       CONSTANT HEAD     =           0.0000         CONSTANT HEAD     =           0.0000
     HEAD DEP BOUNDS     =    32687936.0000       HEAD DEP BOUNDS     =           0.2905
      STREAM LEAKAGE     =  1363771136.0000        STREAM LEAKAGE     =          12.2151
        UZF RECHARGE     =   128126128.0000          UZF RECHARGE     =           0.0000
               GW ET     =           0.0000                 GW ET     =           0.0000
     SURFACE LEAKAGE     =           0.0000       SURFACE LEAKAGE     =           0.0000
           AG WELLS      =           0.0000             AG WELLS      =           0.0000

                TOTAL IN =  3337409280.0000                  TOTAL IN =          51.5554

          OUT:                                     OUT:
          ----                                     ----
             STORAGE     =   968004288.0000               STORAGE     =           0.1185
       CONSTANT HEAD     =           0.0000         CONSTANT HEAD     =           0.0000
     HEAD DEP BOUNDS     =    32570072.0000       HEAD DEP BOUNDS     =           0.2861
      STREAM LEAKAGE     =  1106556544.0000        STREAM LEAKAGE     =           9.2921
        UZF RECHARGE     =           0.0000          UZF RECHARGE     =           0.0000
               GW ET     =           0.0000                 GW ET     =           0.0000
     SURFACE LEAKAGE     =           0.0000       SURFACE LEAKAGE     =           0.0000
           AG WELLS      =  1230251136.0000             AG WELLS      =          41.8586

               TOTAL OUT =  3337381888.0000                 TOTAL OUT =          51.5554

                IN - OUT =       27392.0000                  IN - OUT =       6.8665E-05

     PERCENT DISCREPANCY =           0.00         PERCENT DISCREPANCY =           0.00






         TIME SUMMARY AT END OF TIME STEP   30 IN STRESS PERIOD   44
                    SECONDS     MINUTES      HOURS       DAYS        YEARS
                    -----------------------------------------------------------
   TIME STEP LENGTH  87667.      1461.1      24.352      1.0147     2.77799E-03
 STRESS PERIOD TIME 2.63000E+06  43833.      730.56      30.440     8.33397E-02
         TOTAL TIME 1.13175E+08 1.88626E+06  31438.      1309.9      3.5863    
1
1
                            STRESS PERIOD NO.   45, LENGTH =   2630000.    
                            -----------------------------------------------

                              NUMBER OF TIME STEPS =    30

                               MULTIPLIER FOR DELT =     1.000

                            INITIAL TIME STEP SIZE =   87666.66    

 REUSING NON-PARAMETER GHB CELLS FROM LAST STRESS PERIOD

      2 GHB CELLS

 REUSING STREAM SEGMENT DATA FROM LAST STRESS PERIOD



            AREAL INFILTRATION RATE
 READING ON UNIT   19 WITH FORMAT: (FREE)              

            1           2           3           4           5           6           7           8           9          10
 ........................................................................................................................
   1   1.0000E-10  2.0000E-10   0.000       0.000       0.000       0.000       0.000       0.000       0.000       0.000    
   2   2.0000E-10  1.0000E-10  2.0000E-10   0.000       0.000      8.0000E-10  8.0000E-10  5.0000E-10   0.000       0.000    
   3    0.000      5.0000E-10  1.0000E-10  1.0000E-10  8.0000E-10  8.0000E-10  5.0000E-10  5.0000E-10   0.000       0.000    
   4   8.0000E-10  5.0000E-10  1.0000E-10  1.0000E-10  1.0000E-10  1.0000E-10  1.0000E-10  1.0000E-10  2.0000E-10   0.000    
   5   8.0000E-10  5.0000E-10  1.0000E-10  1.0000E-10  1.0000E-10  1.0000E-10  1.0000E-10  1.0000E-10  1.0000E-10  1.0000E-10
   6   8.0000E-10  5.0000E-10  5.0000E-10  2.0000E-10  2.0000E-10  1.0000E-10  1.0000E-10  1.0000E-10  1.0000E-10  5.0000E-10
   7   8.0000E-10  5.0000E-10  5.0000E-10  2.0000E-10  2.0000E-10  1.0000E-10  1.0000E-10  2.0000E-10  2.0000E-10   0.000    
   8    0.000      5.0000E-10  5.0000E-10  2.0000E-10  2.0000E-10  1.0000E-10  1.0000E-10  2.0000E-10  5.0000E-10   0.000    
   9    0.000      5.0000E-10  5.0000E-10  2.0000E-10  2.0000E-10  1.0000E-10  1.0000E-10  2.0000E-10  5.0000E-10   0.000    
  10    0.000      5.0000E-10  5.0000E-10  2.0000E-10  2.0000E-10  1.0000E-10  1.0000E-10  2.0000E-10  5.0000E-10  8.0000E-10
  11    0.000      1.0000E-10  1.0000E-10  1.0000E-10  1.0000E-10  1.0000E-10  1.0000E-10  2.0000E-10  5.0000E-10   0.000    
  12   1.0000E-10  1.0000E-10  1.0000E-10  1.0000E-10  1.0000E-10  1.0000E-10  1.0000E-10  1.0000E-10  2.0000E-10   0.000    
  13   1.0000E-10  1.0000E-10  2.0000E-10  2.0000E-10  2.0000E-10  2.0000E-10  2.0000E-10  1.0000E-10  1.0000E-10   0.000    
  14    0.000      2.0000E-10  5.0000E-10  5.0000E-10  5.0000E-10  5.0000E-10  5.0000E-10  2.0000E-10  1.0000E-10   0.000    
  15    0.000       0.000      8.0000E-10  8.0000E-10  8.0000E-10  8.0000E-10   0.000       0.000       0.000       0.000    

                  ET RATE =  3.250000E-07

 USING ET EXTINCTION DEPTH FROM PREVIOUS STRESS PERIOD. CURRENT PERIOD IS:      45

 USING EXTINCTION WATER CONTENT FROM PREVIOUS STRESS PERIOD. CURRENT PERIOD IS:      45

 USING AIR ENTRY PRESSURE FROM PREVIOUS STRESS PERIOD. CURRENT PERIOD IS:      45

 USING ROOT PRESSURE HEAD FROM PREVIOUS STRESS PERIOD. CURRENT PERIOD IS:      45

 USING ROOT ACTIVITY FROM PREVIOUS STRESS PERIOD. CURRENT PERIOD IS:      45

 PROCESSING AG STRESS PERIOD DATA

 READING AG STRESS PERIOD DATA

 READING IRRIGATION SEGMENT

 READING IRRIGATION WELL

 READING SUPPLEMENTAL WELL

 NO IRRPOND OR REUSING IRRPOND DATA FROM LAST STRESS PERIOD

 END PROCESSING AG STRESS PERIOD DATA OPTIONS
 
 SOLVING FOR HEAD 
                                                   Max.-Head-Change                         Max.-Flux-Residual
  Residual-Control   Outer-Iter.   Inner-Iter.     Column Row Layer    Maximum-Head-Change  Column Row Layer    Maximum-Flux-Residual          L2-NORM 
          0                 1           2             5    8     1       0.7120967839E-01       5    8    1         0.3878265737E+01      0.8954586857E+01
          0                 2           2             4    7     1      -0.2451622961E+00       5    8    1        -0.1331748895E+02      0.3246222355E+02
          0                 3           2             4    7     1       0.1669434380E-01       5    8    1         0.9321461903E+00      0.2272213214E+01
          0                 4           2             4    7     1      -0.6642849866E-03       5    8    1        -0.3811882347E-01      0.9292531644E-01
          0                 5           1             4    7     1       0.8190919425E-05       5    8    1         0.4826697502E-03      0.1177450305E-02

    ------------------------------------------------
       NWT REQUIRED            5 OUTER ITERATIONS 
       AND A TOTAL OF          9 INNER ITERATIONS.
    ------------------------------------------------

 NO OUTPUT CONTROL FOR STRESS PERIOD   45   TIME STEP    1
 
 SOLVING FOR HEAD 
                                                   Max.-Head-Change                         Max.-Flux-Residual
  Residual-Control   Outer-Iter.   Inner-Iter.     Column Row Layer    Maximum-Head-Change  Column Row Layer    Maximum-Flux-Residual          L2-NORM 
          0                 1           2             5    8     1       0.7495686876E-01       5    8    1         0.4083753095E+01      0.9409077413E+01
          0                 2           2             5    8     1      -0.1288342482E-01       5    8    1        -0.7162459392E+00      0.1646108546E+01
          0                 3           2             4    7     1      -0.2396185908E-01       4    7    1        -0.1286201039E+01      0.3148913445E+01
          0                 4           2             4    7     1       0.2338868586E-01       4    7    1         0.1290318330E+01      0.3159475186E+01
          0                 5           2             4    7     1      -0.1474557339E-01       4    7    1        -0.8361561236E+00      0.2048126226E+01
          0                 6           2             4    7     1      -0.1123726466E-01       4    7    1        -0.6372066173E+00      0.1560819769E+01
          0                 7           2             4    7     1      -0.1242162384E-02       4    7    1        -0.7043527569E-01      0.1725221825E+00
          0                 8           2             4    7     1      -0.1324347667E-01       4    7    1        -0.7509543825E+00      0.1839453869E+01
          0                 9           2             4    7     1       0.1638045377E-03       5    8    1         0.9556013525E-02      0.2341068573E-01
          0                10           1             4    7     1       0.2402849836E-05       5    8    1         0.1401757879E-03      0.3434082594E-03

    ------------------------------------------------
       NWT REQUIRED           10 OUTER ITERATIONS 
       AND A TOTAL OF         19 INNER ITERATIONS.
    ------------------------------------------------

 NO OUTPUT CONTROL FOR STRESS PERIOD   45   TIME STEP    2
 
 SOLVING FOR HEAD 
                                                   Max.-Head-Change                         Max.-Flux-Residual
  Residual-Control   Outer-Iter.   Inner-Iter.     Column Row Layer    Maximum-Head-Change  Column Row Layer    Maximum-Flux-Residual          L2-NORM 
          0                 1           2             5    8     1       0.7300982164E-01       5    8    1         0.3974986629E+01      0.9231080746E+01
          0                 2           2             5    6     1      -0.9143954568E-01       5    8    1        -0.5036813202E+01      0.1219371063E+02
          0                 3           2             4    7     1      -0.1465917139E-01       4    7    1        -0.7869290313E+00      0.1911546245E+01
          0                 4           2             5    7     1      -0.4765412470E-03       5    8    1        -0.2621448552E-01      0.6346416136E-01
          0                 5           2             4    7     1      -0.1480039195E-02       4    7    1        -0.7942923407E-01      0.1944814850E+00
          0                 6           1             4    7     1       0.1008283561E-03       4    7    1         0.5562517980E-02      0.1362131186E-01
          0                 7           1             4    7     1      -0.4014909743E-05       4    7    1        -0.2276726264E-03      0.5576033031E-03

    ------------------------------------------------
       NWT REQUIRED            7 OUTER ITERATIONS 
       AND A TOTAL OF         12 INNER ITERATIONS.
    ------------------------------------------------

 NO OUTPUT CONTROL FOR STRESS PERIOD   45   TIME STEP    3
 
 SOLVING FOR HEAD 
                                                   Max.-Head-Change                         Max.-Flux-Residual
  Residual-Control   Outer-Iter.   Inner-Iter.     Column Row Layer    Maximum-Head-Change  Column Row Layer    Maximum-Flux-Residual          L2-NORM 
          0                 1           2             5    8     1       0.7293655856E-01       5    8    1         0.3969739713E+01      0.9255677071E+01
          0                 2           2             5    7     1      -0.9488869675E-01       5    8    1        -0.5222491034E+01      0.1265349039E+02
          0                 3           2             4    7     1      -0.2446517889E-01       4    7    1        -0.1313179300E+01      0.3200904102E+01
          0                 4           2             4    7     1       0.1666222283E-02       4    7    1         0.9193814125E-01      0.2241171404E+00
          0                 5           1             4    7     1      -0.6631628320E-04       4    7    1        -0.3761273320E-02      0.9170528478E-02

    ------------------------------------------------
       NWT REQUIRED            5 OUTER ITERATIONS 
       AND A TOTAL OF          9 INNER ITERATIONS.
    ------------------------------------------------

 NO OUTPUT CONTROL FOR STRESS PERIOD   45   TIME STEP    4
 
 SOLVING FOR HEAD 
                                                   Max.-Head-Change                         Max.-Flux-Residual
  Residual-Control   Outer-Iter.   Inner-Iter.     Column Row Layer    Maximum-Head-Change  Column Row Layer    Maximum-Flux-Residual          L2-NORM 
          0                 1           2             5    8     1       0.7319164582E-01       5    8    1         0.3982658767E+01      0.9314855948E+01
          0                 2           2             5    7     1      -0.9558352375E-01       5    8    1        -0.5258075117E+01      0.1274427542E+02
          0                 3           2             4    7     1      -0.2396777650E-01       4    7    1        -0.1286476691E+01      0.3135848036E+01
          0                 4           2             4    7     1       0.1632346332E-02       4    7    1         0.9006868467E-01      0.2195617172E+00
          0                 5           1             4    7     1      -0.6496800674E-04       4    7    1        -0.3684793630E-02      0.8984129168E-02

    ------------------------------------------------
       NWT REQUIRED            5 OUTER ITERATIONS 
       AND A TOTAL OF          9 INNER ITERATIONS.
    ------------------------------------------------

 NO OUTPUT CONTROL FOR STRESS PERIOD   45   TIME STEP    5
 
 SOLVING FOR HEAD 
                                                   Max.-Head-Change                         Max.-Flux-Residual
  Residual-Control   Outer-Iter.   Inner-Iter.     Column Row Layer    Maximum-Head-Change  Column Row Layer    Maximum-Flux-Residual          L2-NORM 
          0                 1           2             5    8     1       0.7345757666E-01       5    8    1         0.3996208486E+01      0.9374199974E+01
          0                 2           2             5    7     1      -0.9620544341E-01       5    8    1        -0.5289833659E+01      0.1282550127E+02
          0                 3           2             4    7     1      -0.2329102651E-01       4    7    1        -0.1250149402E+01      0.3047205313E+01
          0                 4           2             4    7     1       0.1586255776E-02       4    7    1         0.8752539611E-01      0.2133546762E+00
          0                 5           1             4    7     1      -0.6313358508E-04       4    7    1        -0.3580747234E-02      0.8730152031E-02

    ------------------------------------------------
       NWT REQUIRED            5 OUTER ITERATIONS 
       AND A TOTAL OF          9 INNER ITERATIONS.
    ------------------------------------------------

 NO OUTPUT CONTROL FOR STRESS PERIOD   45   TIME STEP    6
 
 SOLVING FOR HEAD 
                                                   Max.-Head-Change                         Max.-Flux-Residual
  Residual-Control   Outer-Iter.   Inner-Iter.     Column Row Layer    Maximum-Head-Change  Column Row Layer    Maximum-Flux-Residual          L2-NORM 
          0                 1           2             5    8     1       0.7372607423E-01       5    8    1         0.4009922111E+01      0.9432810954E+01
          0                 2           2             5    7     1      -0.9681956684E-01       5    8    1        -0.5321268610E+01      0.1290578120E+02
          0                 3           2             4    7     1      -0.2270006548E-01       4    7    1        -0.1218426453E+01      0.2969830699E+01
          0                 4           2             4    7     1       0.1546007937E-02       4    7    1         0.8530446004E-01      0.2079366387E+00
          0                 5           1             4    7     1      -0.6153170526E-04       4    7    1        -0.3489888359E-02      0.8508456602E-02

    ------------------------------------------------
       NWT REQUIRED            5 OUTER ITERATIONS 
       AND A TOTAL OF          9 INNER ITERATIONS.
    ------------------------------------------------

 NO OUTPUT CONTROL FOR STRESS PERIOD   45   TIME STEP    7
 
 SOLVING FOR HEAD 
                                                   Max.-Head-Change                         Max.-Flux-Residual
  Residual-Control   Outer-Iter.   Inner-Iter.     Column Row Layer    Maximum-Head-Change  Column Row Layer    Maximum-Flux-Residual          L2-NORM 
          0                 1           2             5    8     1       0.7399885995E-01       5    8    1         0.4023895377E+01      0.9490890163E+01
          0                 2           2             5    7     1      -0.9740800652E-01       5    8    1        -0.5351407734E+01      0.1298273458E+02
          0                 3           2             4    7     1      -0.2211130679E-01       4    7    1        -0.1186822013E+01      0.2892736352E+01
          0                 4           2             4    7     1       0.1505910085E-02       4    7    1         0.8309182011E-01      0.2025382040E+00
          0                 5           1             4    7     1      -0.5993579486E-04       4    7    1        -0.3399368862E-02      0.8287562952E-02

    ------------------------------------------------
       NWT REQUIRED            5 OUTER ITERATIONS 
       AND A TOTAL OF          9 INNER ITERATIONS.
    ------------------------------------------------

 NO OUTPUT CONTROL FOR STRESS PERIOD   45   TIME STEP    8
 
 SOLVING FOR HEAD 
                                                   Max.-Head-Change                         Max.-Flux-Residual
  Residual-Control   Outer-Iter.   Inner-Iter.     Column Row Layer    Maximum-Head-Change  Column Row Layer    Maximum-Flux-Residual          L2-NORM 
          0                 1           2             5    8     1       0.7427432415E-01       5    8    1         0.4038046243E+01      0.9548365024E+01
          0                 2           2             5    7     1      -0.9797817993E-01       5    8    1        -0.5380645276E+01      0.1305734299E+02
          0                 3           2             4    7     1      -0.2154853308E-01       4    7    1        -0.1156612401E+01      0.2819049094E+01
          0                 4           2             4    7     1       0.1467581956E-02       4    7    1         0.8097683250E-01      0.1973783189E+00
          0                 5           1             4    7     1      -0.5841032029E-04       4    7    1        -0.3312844345E-02      0.8076430667E-02

    ------------------------------------------------
       NWT REQUIRED            5 OUTER ITERATIONS 
       AND A TOTAL OF          9 INNER ITERATIONS.
    ------------------------------------------------

 NO OUTPUT CONTROL FOR STRESS PERIOD   45   TIME STEP    9
 
 SOLVING FOR HEAD 
                                                   Max.-Head-Change                         Max.-Flux-Residual
  Residual-Control   Outer-Iter.   Inner-Iter.     Column Row Layer    Maximum-Head-Change  Column Row Layer    Maximum-Flux-Residual          L2-NORM 
          0                 1           2             5    8     1       0.7455224702E-01       5    8    1         0.4052358393E+01      0.9605254936E+01
          0                 2           2             5    7     1      -0.9852954045E-01       5    8    1        -0.5408944318E+01      0.1312952168E+02
          0                 3           2             4    7     1      -0.2100269806E-01       4    7    1        -0.1127312126E+01      0.2747579973E+01
          0                 4           2             4    7     1       0.1430407447E-02       4    7    1         0.7892550761E-01      0.1923737559E+00
          0                 5           1             4    7     1      -0.5693076054E-04       4    7    1        -0.3228924282E-02      0.7871654202E-02

    ------------------------------------------------
       NWT REQUIRED            5 OUTER ITERATIONS 
       AND A TOTAL OF          9 INNER ITERATIONS.
    ------------------------------------------------

 NO OUTPUT CONTROL FOR STRESS PERIOD   45   TIME STEP   10
 
 SOLVING FOR HEAD 
                                                   Max.-Head-Change                         Max.-Flux-Residual
  Residual-Control   Outer-Iter.   Inner-Iter.     Column Row Layer    Maximum-Head-Change  Column Row Layer    Maximum-Flux-Residual          L2-NORM 
          0                 1           2             5    8     1       0.7483168635E-01       5    8    1         0.4066778605E+01      0.9661534339E+01
          0                 2           2             5    7     1      -0.9906001736E-01       5    8    1        -0.5436186053E+01      0.1319899297E+02
          0                 3           2             4    7     1      -0.2045940146E-01       4    7    1        -0.1098148366E+01      0.2676436603E+01
          0                 4           2             4    7     1       0.1393405813E-02       4    7    1         0.7688373950E-01      0.1873919685E+00
          0                 5           1             4    7     1      -0.5545808099E-04       4    7    1        -0.3145395167E-02      0.7667808629E-02

    ------------------------------------------------
       NWT REQUIRED            5 OUTER ITERATIONS 
       AND A TOTAL OF          9 INNER ITERATIONS.
    ------------------------------------------------

 NO OUTPUT CONTROL FOR STRESS PERIOD   45   TIME STEP   11
 
 SOLVING FOR HEAD 
                                                   Max.-Head-Change                         Max.-Flux-Residual
  Residual-Control   Outer-Iter.   Inner-Iter.     Column Row Layer    Maximum-Head-Change  Column Row Layer    Maximum-Flux-Residual          L2-NORM 
          0                 1           2             5    8     1       0.7511183481E-01       5    8    1         0.4081260717E+01      0.9717124396E+01
          0                 2           2             5    7     1      -0.9958111393E-01       5    8    1        -0.5462794539E+01      0.1326702568E+02
          0                 3           2             4    7     1      -0.1995323790E-01       4    7    1        -0.1070977562E+01      0.2610166445E+01
          0                 4           2             4    7     1       0.1358933152E-02       4    7    1         0.7498149921E-01      0.1827514051E+00
          0                 5           1             4    7     1      -0.5408605567E-04       4    7    1        -0.3067574160E-02      0.7477924693E-02

    ------------------------------------------------
       NWT REQUIRED            5 OUTER ITERATIONS 
       AND A TOTAL OF          9 INNER ITERATIONS.
    ------------------------------------------------

 NO OUTPUT CONTROL FOR STRESS PERIOD   45   TIME STEP   12
 
 SOLVING FOR HEAD 
                                                   Max.-Head-Change                         Max.-Flux-Residual
  Residual-Control   Outer-Iter.   Inner-Iter.     Column Row Layer    Maximum-Head-Change  Column Row Layer    Maximum-Flux-Residual          L2-NORM 
          0                 1           2             5    8     1       0.7540133837E-01       5    8    1         0.4095938666E+01      0.9772107415E+01
          0                 2           2             5    7     1      -0.1000817287E+00       5    8    1        -0.5488750933E+01      0.1333287780E+02
          0                 3           2             4    7     1      -0.1945587749E-01       4    7    1        -0.1044279469E+01      0.2545045881E+01
          0                 4           2             4    7     1       0.1325060033E-02       4    7    1         0.7311235317E-01      0.1781913279E+00
          0                 5           1             4    7     1      -0.5273789261E-04       4    7    1        -0.2991107075E-02      0.7291333533E-02

    ------------------------------------------------
       NWT REQUIRED            5 OUTER ITERATIONS 
       AND A TOTAL OF          9 INNER ITERATIONS.
    ------------------------------------------------

 NO OUTPUT CONTROL FOR STRESS PERIOD   45   TIME STEP   13
 
 SOLVING FOR HEAD 
                                                   Max.-Head-Change                         Max.-Flux-Residual
  Residual-Control   Outer-Iter.   Inner-Iter.     Column Row Layer    Maximum-Head-Change  Column Row Layer    Maximum-Flux-Residual          L2-NORM 
          0                 1           2             5    8     1       0.7568925217E-01       5    8    1         0.4110905351E+01      0.9826450292E+01
          0                 2           2             5    7     1      -0.1005696562E+00       5    8    1        -0.5513952088E+01      0.1339694422E+02
          0                 3           2             4    7     1      -0.1897549164E-01       4    7    1        -0.1018492658E+01      0.2482149607E+01
          0                 4           2             4    7     1       0.1292342978E-02       4    7    1         0.7130700612E-01      0.1737869830E+00
          0                 5           1             4    7     1      -0.5143574119E-04       4    7    1        -0.2917249987E-02      0.7111113163E-02

    ------------------------------------------------
       NWT REQUIRED            5 OUTER ITERATIONS 
       AND A TOTAL OF          9 INNER ITERATIONS.
    ------------------------------------------------

 NO OUTPUT CONTROL FOR STRESS PERIOD   45   TIME STEP   14
 
 SOLVING FOR HEAD 
                                                   Max.-Head-Change                         Max.-Flux-Residual
  Residual-Control   Outer-Iter.   Inner-Iter.     Column Row Layer    Maximum-Head-Change  Column Row Layer    Maximum-Flux-Residual          L2-NORM 
          0                 1           2             5    8     1       0.7597666213E-01       5    8    1         0.4125862113E+01      0.9880137806E+01
          0                 2           2             5    7     1      -0.1010439075E+00       5    8    1        -0.5538460360E+01      0.1345922862E+02
          0                 3           2             4    7     1      -0.1850798246E-01       4    7    1        -0.9933971401E+00      0.2420939431E+01
          0                 4           2             4    7     1       0.1260502894E-02       4    7    1         0.6955005655E-01      0.1695006975E+00
          0                 5           1             4    7     1      -0.5016849355E-04       4    7    1        -0.2845372839E-02      0.6935725680E-02

    ------------------------------------------------
       NWT REQUIRED            5 OUTER ITERATIONS 
       AND A TOTAL OF          9 INNER ITERATIONS.
    ------------------------------------------------

 NO OUTPUT CONTROL FOR STRESS PERIOD   45   TIME STEP   15
 
 SOLVING FOR HEAD 
                                                   Max.-Head-Change                         Max.-Flux-Residual
  Residual-Control   Outer-Iter.   Inner-Iter.     Column Row Layer    Maximum-Head-Change  Column Row Layer    Maximum-Flux-Residual          L2-NORM 
          0                 1           2             5    8     1       0.1186287452E+00       5    8    1         0.6478415796E+01      0.1111266995E+02
          0                 2           2             4    7     1      -0.1013983373E+00       5    6    1        -0.5559240180E+01      0.1253936855E+02
          0                 3           2             5    8     1      -0.4406838091E-01       5    8    1        -0.2470210312E+01      0.3279631539E+01
          0                 4           2             5    8     1      -0.1967054740E-01       5    8    1        -0.1117818572E+01      0.1127976853E+01
          0                 5           2             5    8     1      -0.8780145897E-02       5    8    1        -0.4979264368E+00      0.4979709601E+00
          0                 6           1             5    8     1      -0.3919059306E-02       5    8    1        -0.2222821347E+00      0.2222829654E+00
          0                 7           1             5    8     1      -0.1749270109E-02       5    8    1        -0.9921411503E-01      0.9921453071E-01
          0                 8           1             5    8     1      -0.7807767378E-03       5    8    1        -0.4428323526E-01      0.4428342016E-01
          0                 9           1             5    8     1      -0.3484911996E-03       5    8    1        -0.1976515316E-01      0.1976523575E-01
          0                10           1             5    8     1      -0.1555434503E-03       5    8    1        -0.8821775819E-02      0.8821812813E-02
          0                11           1             5    8     1      -0.6942351592E-04       5    8    1        -0.3937375419E-02      0.3937392190E-02

    ------------------------------------------------
       NWT REQUIRED           11 OUTER ITERATIONS 
       AND A TOTAL OF         16 INNER ITERATIONS.
    ------------------------------------------------

 NO OUTPUT CONTROL FOR STRESS PERIOD   45   TIME STEP   16
 
 SOLVING FOR HEAD 
                                                   Max.-Head-Change                         Max.-Flux-Residual
  Residual-Control   Outer-Iter.   Inner-Iter.     Column Row Layer    Maximum-Head-Change  Column Row Layer    Maximum-Flux-Residual          L2-NORM 
          0                 1           2             5    8     1       0.3844089346E+00       5    8    1         0.2114084552E+02      0.2301442962E+02
          0                 2           2             4    7     1      -0.1018271819E+00       5    6    1        -0.5582579197E+01      0.1300198328E+02
          0                 3           2             4    7     1      -0.1760124105E-01       4    7    1        -0.9452904796E+00      0.2124350717E+01
          0                 4           2             5    8     1       0.2135503839E-02       5    8    1         0.1158230097E+00      0.1874015876E+00
          0                 5           1             5    8     1       0.9199931153E-03       5    8    1         0.5084082178E-01      0.5118672375E-01
          0                 6           1             5    8     1       0.3963407504E-03       5    8    1         0.2186573806E-01      0.2186644767E-01
          0                 7           1             5    8     1       0.1707469227E-03       5    8    1         0.9420069115E-02      0.9420306976E-02
          0                 8           1             5    8     1       0.7355920853E-04       5    8    1         0.4058246905E-02      0.4058348951E-02

    ------------------------------------------------
       NWT REQUIRED            8 OUTER ITERATIONS 
       AND A TOTAL OF         12 INNER ITERATIONS.
    ------------------------------------------------

 NO OUTPUT CONTROL FOR STRESS PERIOD   45   TIME STEP   17
 
 SOLVING FOR HEAD 
                                                   Max.-Head-Change                         Max.-Flux-Residual
  Residual-Control   Outer-Iter.   Inner-Iter.     Column Row Layer    Maximum-Head-Change  Column Row Layer    Maximum-Flux-Residual          L2-NORM 
          0                 1           2             5    8     1       0.3529462279E+00       5    8    1         0.1937967618E+02      0.2154129114E+02
          0                 2           2             4    7     1      -0.1023566441E+00       5    6    1        -0.5605981664E+01      0.1287682415E+02
          0                 3           2             4    7     1      -0.1717071819E-01       4    7    1        -0.9220584997E+00      0.2048880949E+01
          0                 4           2             4    7     1       0.1169293811E-02       4    7    1         0.6455558099E-01      0.1445866736E+00
          0                 5           1             5    8     1      -0.1274722060E-03       5    8    1        -0.7151391360E-02      0.9255451999E-02
          0                 6           1             5    8     1      -0.5689043007E-04       5    8    1        -0.3228148007E-02      0.3228895724E-02

    ------------------------------------------------
       NWT REQUIRED            6 OUTER ITERATIONS 
       AND A TOTAL OF         10 INNER ITERATIONS.
    ------------------------------------------------

 NO OUTPUT CONTROL FOR STRESS PERIOD   45   TIME STEP   18
 
 SOLVING FOR HEAD 
                                                   Max.-Head-Change                         Max.-Flux-Residual
  Residual-Control   Outer-Iter.   Inner-Iter.     Column Row Layer    Maximum-Head-Change  Column Row Layer    Maximum-Flux-Residual          L2-NORM 
          0                 1           2             5    8     1       0.3253998531E+00       5    8    1         0.1783836733E+02      0.2031914238E+02
          0                 2           2             4    7     1      -0.1028577726E+00       5    7    1        -0.5656540763E+01      0.1280909209E+02
          0                 3           2             4    7     1      -0.1675064018E-01       4    7    1        -0.8994488505E+00      0.2016071068E+01
          0                 4           2             5    8     1      -0.2409333385E-02       5    8    1        -0.1385835568E+00      0.1968392025E+00
          0                 5           1             5    8     1      -0.1075228418E-02       5    8    1        -0.6092039854E-01      0.6119332026E-01
          0                 6           1             5    8     1      -0.4798433199E-03       5    8    1        -0.2722162027E-01      0.2722171278E-01
          0                 7           1             5    8     1      -0.2141377008E-03       5    8    1        -0.1214752205E-01      0.1214757482E-01
          0                 8           1             5    8     1      -0.9556124100E-04       5    8    1        -0.5420916607E-02      0.5420939435E-02

    ------------------------------------------------
       NWT REQUIRED            8 OUTER ITERATIONS 
       AND A TOTAL OF         12 INNER ITERATIONS.
    ------------------------------------------------

 NO OUTPUT CONTROL FOR STRESS PERIOD   45   TIME STEP   19
 
 SOLVING FOR HEAD 
                                                   Max.-Head-Change                         Max.-Flux-Residual
  Residual-Control   Outer-Iter.   Inner-Iter.     Column Row Layer    Maximum-Head-Change  Column Row Layer    Maximum-Flux-Residual          L2-NORM 
          0                 1           2             5    8     1       0.3012760151E+00       5    8    1         0.1648922672E+02      0.1930793571E+02
          0                 2           2             4    7     1      -0.1033675878E+00       4    8    1        -0.5709895656E+01      0.1278361219E+02
          0                 3           2             4    7     1      -0.1633948262E-01       4    7    1        -0.8773175872E+00      0.2013021054E+01
          0                 4           2             5    8     1      -0.4258991789E-02       5    8    1        -0.2434836821E+00      0.2790084613E+00
          0                 5           1             5    8     1      -0.1900590354E-02       5    8    1        -0.1077517452E+00      0.1079007747E+00
          0                 6           1             5    8     1      -0.8481352564E-03       5    8    1        -0.4811695881E-01      0.4811707914E-01
          0                 7           1             5    8     1      -0.3784745422E-03       5    8    1        -0.2147123267E-01      0.2147131535E-01
          0                 8           1             5    8     1      -0.1688897092E-03       5    8    1        -0.9581194784E-02      0.9581231005E-02
          0                 9           1             5    8     1      -0.7536412603E-04       5    8    1        -0.4275403129E-02      0.4275419333E-02

    ------------------------------------------------
       NWT REQUIRED            9 OUTER ITERATIONS 
       AND A TOTAL OF         13 INNER ITERATIONS.
    ------------------------------------------------

 NO OUTPUT CONTROL FOR STRESS PERIOD   45   TIME STEP   20
 
 SOLVING FOR HEAD 
                                                   Max.-Head-Change                         Max.-Flux-Residual
  Residual-Control   Outer-Iter.   Inner-Iter.     Column Row Layer    Maximum-Head-Change  Column Row Layer    Maximum-Flux-Residual          L2-NORM 
          0                 1           2             5    8     1       0.2801424875E+00       5    8    1         0.1530795775E+02      0.1847248235E+02
          0                 2           2             5    7     1      -0.1041533723E+00       4    8    1        -0.5758082029E+01      0.1278861114E+02
          0                 3           2             4    7     1      -0.1593750637E-01       4    7    1        -0.8556810447E+00      0.2029091062E+01
          0                 4           2             5    8     1      -0.5869494860E-02       5    8    1        -0.3348236979E+00      0.3601964699E+00
          0                 5           1             5    8     1      -0.2619164921E-02       5    8    1        -0.1485287114E+00      0.1486328740E+00
          0                 6           1             5    8     1      -0.1168745193E-02       5    8    1        -0.6630896245E-01      0.6630911823E-01
          0                 7           1             5    8     1      -0.5215209826E-03       5    8    1        -0.2958789870E-01      0.2958800220E-01
          0                 8           1             5    8     1      -0.2327119544E-03       5    8    1        -0.1320252829E-01      0.1320257384E-01
          0                 9           1             5    8     1      -0.1038390156E-03       5    8    1        -0.5891079701E-02      0.5891100034E-02
          0                10           1             5    8     1      -0.4633374376E-04       5    8    1        -0.2628619128E-02      0.2628628240E-02

    ------------------------------------------------
       NWT REQUIRED           10 OUTER ITERATIONS 
       AND A TOTAL OF         14 INNER ITERATIONS.
    ------------------------------------------------

 NO OUTPUT CONTROL FOR STRESS PERIOD   45   TIME STEP   21
 
 SOLVING FOR HEAD 
                                                   Max.-Head-Change                         Max.-Flux-Residual
  Residual-Control   Outer-Iter.   Inner-Iter.     Column Row Layer    Maximum-Head-Change  Column Row Layer    Maximum-Flux-Residual          L2-NORM 
          0                 1           2             5    8     1       0.1974547547E+00       5    8    1         0.1073185850E+02      0.1508853501E+02
          0                 2           2             4    8     1      -0.1064632887E+00       4    8    1        -0.5801583980E+01      0.1355114273E+02
          0                 3           2             5    8     1      -0.3001678461E-01       5    8    1        -0.1678172846E+01      0.2497234432E+01
          0                 4           2             5    8     1      -0.2813635329E-02       5    8    1        -0.1613898307E+00      0.2069034842E+00
          0                 5           1             5    8     1      -0.2637113731E-03       5    8    1        -0.1488904726E-01      0.1582420012E-01
          0                 6           1             5    8     1      -0.2471437401E-04       5    8    1        -0.1402775256E-02      0.1403981093E-02

    ------------------------------------------------
       NWT REQUIRED            6 OUTER ITERATIONS 
       AND A TOTAL OF         10 INNER ITERATIONS.
    ------------------------------------------------

 NO OUTPUT CONTROL FOR STRESS PERIOD   45   TIME STEP   22
 
 SOLVING FOR HEAD 
                                                   Max.-Head-Change                         Max.-Flux-Residual
  Residual-Control   Outer-Iter.   Inner-Iter.     Column Row Layer    Maximum-Head-Change  Column Row Layer    Maximum-Flux-Residual          L2-NORM 
          0                 1           2             4    8     1       0.3026544848E+00       4    8    1         0.1644462899E+02      0.1912781010E+02
          0                 2           2             5    7     1      -0.1069294368E+00       5    7    1        -0.5818449688E+01      0.1261663840E+02
          0                 3           2             4    7     1      -0.1506739191E-01       4    7    1        -0.8132120963E+00      0.1817672807E+01
          0                 4           2             4    8     1      -0.3713189744E-02       4    8    1        -0.2089106305E+00      0.2480116594E+00
          0                 5           2             4    8     1      -0.1689917785E-02       4    8    1        -0.9415505393E-01      0.9440322261E-01
          0                 6           2             4    8     1      -0.7690935469E-03       4    8    1        -0.4290025996E-01      0.4290063235E-01
          0                 7           2             4    8     1      -0.3500159985E-03       4    8    1        -0.1952213933E-01      0.1952218427E-01
          0                 8           2             4    8     1      -0.1592911919E-03       4    8    1        -0.8884445190E-02      0.8884460944E-02
          0                 9           1             4    8     1      -0.7249211492E-04       4    8    1        -0.4043197765E-02      0.4043205111E-02

    ------------------------------------------------
       NWT REQUIRED            9 OUTER ITERATIONS 
       AND A TOTAL OF         17 INNER ITERATIONS.
    ------------------------------------------------

 NO OUTPUT CONTROL FOR STRESS PERIOD   45   TIME STEP   23
 
 SOLVING FOR HEAD 
                                                   Max.-Head-Change                         Max.-Flux-Residual
  Residual-Control   Outer-Iter.   Inner-Iter.     Column Row Layer    Maximum-Head-Change  Column Row Layer    Maximum-Flux-Residual          L2-NORM 
          0                 1           2             4    8     1       0.3956350018E+00       4    8    1         0.2146604598E+02      0.2735540929E+02
          0                 2           2             4    6     1      -0.1044630925E+00       5    6    1        -0.5741684209E+01      0.1191812094E+02
          0                 3           2             5    7     1      -0.1499081964E-01       5    7    1        -0.8158698903E+00      0.1818481327E+01
          0                 4           2             5    7     1      -0.6685974733E-02       5    7    1        -0.3822772821E+00      0.4627985949E+00
          0                 5           2             5    7     1      -0.2981956303E-02       5    7    1        -0.1691182660E+00      0.1981782107E+00
          0                 6           2             5    7     1      -0.1329948367E-02       5    7    1        -0.7549072017E-01      0.8802755025E-01
          0                 7           2             5    7     1      -0.5931508761E-03       5    7    1        -0.3366626125E-01      0.3910755252E-01
          0                 8           2             5    7     1      -0.2645406642E-03       5    7    1        -0.1501474900E-01      0.1737580311E-01
          0                 9           2             5    7     1      -0.1179822153E-03       5    7    1        -0.6696319774E-02      0.7720768053E-02
          0                10           1             5    7     1      -0.5261837985E-04       5    7    1        -0.2986422916E-02      0.3430896739E-02

    ------------------------------------------------
       NWT REQUIRED           10 OUTER ITERATIONS 
       AND A TOTAL OF         19 INNER ITERATIONS.
    ------------------------------------------------

 NO OUTPUT CONTROL FOR STRESS PERIOD   45   TIME STEP   24
 
 SOLVING FOR HEAD 
                                                   Max.-Head-Change                         Max.-Flux-Residual
  Residual-Control   Outer-Iter.   Inner-Iter.     Column Row Layer    Maximum-Head-Change  Column Row Layer    Maximum-Flux-Residual          L2-NORM 
          0                 1           2             5    7     1       0.3850803534E+00       5    7    1         0.2110038206E+02      0.3077783074E+02
          0                 2           2             4    6     1      -0.1038153767E+00       4    7    1        -0.5756533191E+01      0.1114282498E+02
          0                 3           2             5    6     1      -0.3650928291E-01       5    6    1        -0.2063301043E+01      0.2469064858E+01
          0                 4           2             5    6     1      -0.1625618550E-01       5    6    1        -0.9247525382E+00      0.9479636434E+00
          0                 5           2             5    6     1      -0.7241242323E-02       5    6    1        -0.4113546827E+00      0.4182646020E+00
          0                 6           2             5    6     1      -0.3226862675E-02       5    6    1        -0.1832595585E+00      0.1858128036E+00
          0                 7           2             5    6     1      -0.1438517752E-02       5    6    1        -0.8166880772E-01      0.8262701575E-01
          0                 8           2             5    6     1      -0.6415221810E-03       5    6    1        -0.3640937116E-01      0.3677349313E-01
          0                 9           2             5    6     1      -0.2861964637E-03       5    6    1        -0.1623793646E-01      0.1637921056E-01
          0                10           2             5    6     1      -0.1277225205E-03       5    6    1        -0.7244420166E-02      0.7300884311E-02
          0                11           1             5    6     1      -0.5701849814E-04       5    6    1        -0.3233151486E-02      0.3256581373E-02

    ------------------------------------------------
       NWT REQUIRED           11 OUTER ITERATIONS 
       AND A TOTAL OF         21 INNER ITERATIONS.
    ------------------------------------------------

 NO OUTPUT CONTROL FOR STRESS PERIOD   45   TIME STEP   25
 
 SOLVING FOR HEAD 
                                                   Max.-Head-Change                         Max.-Flux-Residual
  Residual-Control   Outer-Iter.   Inner-Iter.     Column Row Layer    Maximum-Head-Change  Column Row Layer    Maximum-Flux-Residual          L2-NORM 
          0                 1           2             5    6     1       0.4038991638E+00       5    6    1         0.2195017054E+02      0.3549583467E+02
          0                 2           2             4    7     1      -0.1044825713E+00       4    7    1        -0.5852119783E+01      0.1155430134E+02
          0                 3           2             5    8     1      -0.1363084064E-01       5    8    1        -0.7767828515E+00      0.1486887270E+01
          0                 4           2             5    6     1       0.5241645133E-02       5    6    1         0.2871715602E+00      0.3101189533E+00
          0                 5           2             5    6     1       0.2270466420E-02       5    6    1         0.1247566323E+00      0.1294709741E+00
          0                 6           2             5    6     1       0.9837966518E-03       5    6    1         0.5402630479E-01      0.5629117894E-01
          0                 7           2             5    6     1       0.4264191638E-03       5    6    1         0.2341181848E-01      0.2450726460E-01
          0                 8           2             5    6     1       0.1848874515E-03       5    6    1         0.1014826234E-01      0.1067456558E-01
          0                 9           1             5    6     1       0.8018917570E-04       5    6    1         0.4400363970E-02      0.4651676807E-02

    ------------------------------------------------
       NWT REQUIRED            9 OUTER ITERATIONS 
       AND A TOTAL OF         17 INNER ITERATIONS.
    ------------------------------------------------

 NO OUTPUT CONTROL FOR STRESS PERIOD   45   TIME STEP   26
 
 SOLVING FOR HEAD 
                                                   Max.-Head-Change                         Max.-Flux-Residual
  Residual-Control   Outer-Iter.   Inner-Iter.     Column Row Layer    Maximum-Head-Change  Column Row Layer    Maximum-Flux-Residual          L2-NORM 
          0                 1           2             5    6     1       0.3776650847E+00       5    6    1         0.2050028402E+02      0.3354300094E+02
          0                 2           2             4    6     1      -0.1036621430E+00       4    6    1        -0.5812327899E+01      0.1041884040E+02
          0                 3           2             4    7     1      -0.4560642881E-01       4    7    1        -0.2539488116E+01      0.2780473514E+01
          0                 4           2             5    6     1       0.3119308464E-02       4    7    1         0.1777918201E+00      0.2713866743E+00
          0                 5           2             5    6     1       0.1340775714E-02       5    6    1         0.7415937781E-01      0.8283768009E-01
          0                 6           2             5    6     1       0.5764498656E-03       5    6    1         0.3186114149E-01      0.3578190251E-01
          0                 7           2             5    6     1       0.2479012699E-03       5    6    1         0.1369873763E-01      0.1553994082E-01
          0                 8           1             5    6     1       0.1066379314E-03       5    6    1         0.5891329751E-02      0.6758904993E-02
          0                 9           1             5    6     1       0.4588448799E-04       5    6    1         0.2534331453E-02      0.2944184980E-02

    ------------------------------------------------
       NWT REQUIRED            9 OUTER ITERATIONS 
       AND A TOTAL OF         16 INNER ITERATIONS.
    ------------------------------------------------

 NO OUTPUT CONTROL FOR STRESS PERIOD   45   TIME STEP   27
 
 SOLVING FOR HEAD 
                                                   Max.-Head-Change                         Max.-Flux-Residual
  Residual-Control   Outer-Iter.   Inner-Iter.     Column Row Layer    Maximum-Head-Change  Column Row Layer    Maximum-Flux-Residual          L2-NORM 
          0                 1           2             4    7     1       0.4092908206E+00       4    7    1         0.2173045779E+02      0.3804822542E+02
          0                 2           2             4    6     1      -0.1028138272E+00       4    6    1        -0.5876520348E+01      0.1024933568E+02
          0                 3           2             4    7     1       0.1476106393E-01       4    7    1         0.8173100897E+00      0.1333082685E+01
          0                 4           2             4    7     1       0.6432367023E-02       4    7    1         0.3510349537E+00      0.3787815841E+00
          0                 5           2             4    7     1       0.2804227845E-02       4    7    1         0.1533035337E+00      0.1618809003E+00
          0                 6           2             4    7     1       0.1223069815E-02       4    7    1         0.6682431088E-01      0.7035553891E-01
          0                 7           2             4    7     1       0.5336912338E-03       4    7    1         0.2914792775E-01      0.3061334414E-01
          0                 8           1             4    7     1       0.2329888964E-03       4    7    1         0.1271960483E-01      0.1333244096E-01
          0                 9           1             4    7     1       0.1017631173E-03       4    7    1         0.5553205521E-02      0.5811929783E-02
          0                10           1             4    7     1       0.4446928455E-04       4    7    1         0.2425594366E-02      0.2536135062E-02

    ------------------------------------------------
       NWT REQUIRED           10 OUTER ITERATIONS 
       AND A TOTAL OF         17 INNER ITERATIONS.
    ------------------------------------------------

 NO OUTPUT CONTROL FOR STRESS PERIOD   45   TIME STEP   28
 
 SOLVING FOR HEAD 
                                                   Max.-Head-Change                         Max.-Flux-Residual
  Residual-Control   Outer-Iter.   Inner-Iter.     Column Row Layer    Maximum-Head-Change  Column Row Layer    Maximum-Flux-Residual          L2-NORM 
          0                 1           2             4    7     1       0.4240060289E+00       4    7    1         0.2266162317E+02      0.3461713407E+02
          0                 2           2             4    6     1      -0.1046686164E+00       4    6    1        -0.5975758616E+01      0.1123980532E+02
          0                 3           2             4    8     1      -0.2832191393E-01       4    8    1        -0.1580783211E+01      0.2085387102E+01
          0                 4           2             4    7     1       0.7119326168E-02       4    7    1         0.3898281808E+00      0.4308949878E+00
          0                 5           2             4    7     1       0.3103916031E-02       4    7    1         0.1695880176E+00      0.1728820477E+00
          0                 6           2             4    7     1       0.1355600464E-02       4    7    1         0.7397288222E-01      0.7500451560E-01
          0                 7           1             4    7     1       0.5923978944E-03       4    7    1         0.3231294675E-01      0.3269165278E-01
          0                 8           1             4    7     1       0.2589689364E-03       4    7    1         0.1412153675E-01      0.1425962590E-01
          0                 9           1             4    7     1       0.1132438699E-03       4    7    1         0.6173553665E-02      0.6223132216E-02
          0                10           1             4    7     1       0.4953484966E-04       4    7    1         0.2699728439E-02      0.2717264433E-02

    ------------------------------------------------
       NWT REQUIRED           10 OUTER ITERATIONS 
       AND A TOTAL OF         16 INNER ITERATIONS.
    ------------------------------------------------

 NO OUTPUT CONTROL FOR STRESS PERIOD   45   TIME STEP   29
 
 SOLVING FOR HEAD 
                                                   Max.-Head-Change                         Max.-Flux-Residual
  Residual-Control   Outer-Iter.   Inner-Iter.     Column Row Layer    Maximum-Head-Change  Column Row Layer    Maximum-Flux-Residual          L2-NORM 
          0                 1           2             4    7     1       0.4006646675E+00       4    7    1         0.2149953646E+02      0.3164119656E+02
          0                 2           2             5    8     1      -0.1038488955E+00       5    8    1        -0.5750002236E+01      0.1030825510E+02
          0                 3           2             4    6     1      -0.3253572694E-01       4    6    1        -0.1828380289E+01      0.2615045004E+01
          0                 4           2             4    6     1      -0.1468559668E-01       4    6    1        -0.8247196897E+00      0.8883603117E+00
          0                 5           2             4    6     1      -0.6633640300E-02       4    6    1        -0.3722951620E+00      0.3930513150E+00
          0                 6           2             4    6     1      -0.2998585870E-02       4    6    1        -0.1681867297E+00      0.1768254064E+00
          0                 7           2             4    6     1      -0.1356359117E-02       4    6    1        -0.7603210302E-01      0.7972026866E-01
          0                 8           2             4    6     1      -0.6139298922E-03       4    6    1        -0.3439492955E-01      0.3599394524E-01
          0                 9           2             4    6     1      -0.2780618782E-03       4    6    1        -0.1556956534E-01      0.1627389076E-01
          0                10           2             4    6     1      -0.1260188049E-03       4    6    1        -0.7052383606E-02      0.7367615842E-02
          0                11           1             4    6     1      -0.5714694651E-04       4    6    1        -0.3196431340E-02      0.3339700581E-02

    ------------------------------------------------
       NWT REQUIRED           11 OUTER ITERATIONS 
       AND A TOTAL OF         21 INNER ITERATIONS.
    ------------------------------------------------

 NO OUTPUT CONTROL FOR STRESS PERIOD   45   TIME STEP   30



 STREAM LISTING     PERIOD     45   STEP       30

 LAYER ROW COL. STREAM  RCH.  FLOW INTO     FLOW TO   FLOW OUT OF   OVRLND.     DIRECT     STREAM       STREAM     STREAM     STREAM   STREAMBED  STREAMBED
                SEG.NO.  NO.  STRM. RCH.    AQUIFER    STRM. RCH.    RUNOFF     PRECIP       ET          HEAD       DEPTH      WIDTH   CONDCTNC.   GRADIENT

   1    1    1     1     1    1.3875E+01  1.7894E-01   1.3696E+01  0.000E+00  0.000E+00  0.000E+00  1.09404E+03  9.876E-01  9.972E+00  4.487E-02  1.329E+00
   1    2    2     1     2    1.3696E+01  2.7573E-01   1.3420E+01  0.000E+00  0.000E+00  0.000E+00  1.08904E+03  9.829E-01  9.890E+00  6.923E-02  1.328E+00
   1    3    3     1     3    1.3420E+01  2.3380E-01   1.3186E+01  0.000E+00  0.000E+00  0.000E+00  1.08340E+03  9.775E-01  9.797E+00  5.878E-02  1.326E+00
   1    3    4     1     4    1.3186E+01  2.1419E-01   1.2972E+01  0.000E+00  0.000E+00  0.000E+00  1.07838E+03  9.727E-01  9.714E+00  5.391E-02  1.324E+00
   1    4    5     2     1    1.0972E+01  2.9101E-01   1.0681E+01  0.000E+00  0.000E+00  0.000E+00  1.07266E+03  7.309E-01  1.200E+01  7.800E-02  1.244E+00
   1    5    6     2     2    1.0681E+01  2.2322E-01   1.0458E+01  0.000E+00  0.000E+00  0.000E+00  1.06723E+03  7.204E-01  1.200E+01  6.000E-02  1.240E+00
   1    6    6     2     3    1.0458E+01  2.2267E-01   1.0235E+01  0.000E+00  0.000E+00  0.000E+00  1.06250E+03  7.112E-01  1.200E+01  6.000E-02  1.237E+00
   1    7    6     2     4    1.0235E+01  2.2212E-01   1.0013E+01  0.000E+00  0.000E+00  0.000E+00  1.05778E+03  7.020E-01  1.200E+01  6.000E-02  1.234E+00
   1    8    6     2     5    1.0013E+01  2.2157E-01   9.7913E+00  0.000E+00  0.000E+00  0.000E+00  1.05305E+03  6.928E-01  1.200E+01  6.000E-02  1.231E+00
   1    3    5     3     1    2.0000E+00  2.8252E-01   1.7175E+00  0.000E+00  0.000E+00  0.000E+00  1.07555E+03  1.909E+00  9.636E+00  7.227E-02  1.955E+00
   1    3    6     3     2    1.7175E+00  2.4905E-01   1.4684E+00  0.000E+00  0.000E+00  0.000E+00  1.07264E+03  1.727E+00  8.909E+00  6.682E-02  1.864E+00
   1    3    7     3     3    1.4684E+00  1.9718E-01   1.2712E+00  0.000E+00  0.000E+00  0.000E+00  1.06987E+03  1.555E+00  8.218E+00  5.547E-02  1.777E+00
   1    4    8     3     4    1.2712E+00  2.2567E-01   1.0456E+00  0.000E+00  0.000E+00  0.000E+00  1.06682E+03  1.364E+00  7.455E+00  6.709E-02  1.682E+00
   1    5    8     3     5    1.0456E+00  1.5790E-01   8.8768E-01  0.000E+00  0.000E+00  0.000E+00  1.06362E+03  1.164E+00  6.655E+00  4.991E-02  1.582E+00
   1    6    8     3     6    8.8768E-01  5.5980E-02   8.3170E-01  0.000E+00  0.000E+00  0.000E+00  1.06158E+03  1.036E+00  6.145E+00  1.844E-02  1.518E+00
   1    5   10     4     1    1.0000E+01  9.0919E-02   9.9091E+00  0.000E+00  0.000E+00  0.000E+00  1.07836E+03  6.368E-01  1.000E+01  2.500E-02  1.212E+00
   1    5    9     4     2    9.9091E+00  1.8158E-01   9.7275E+00  0.000E+00  0.000E+00  0.000E+00  1.07154E+03  6.315E-01  1.000E+01  5.000E-02  1.211E+00
   1    6    8     4     3    9.7275E+00  1.2689E-01   9.6006E+00  0.000E+00  0.000E+00  0.000E+00  1.06381E+03  6.256E-01  1.000E+01  3.500E-02  1.209E+00
   1    6    8     5     1    1.0432E+01  2.2686E-01   1.0205E+01  0.000E+00  0.000E+00  0.000E+00  1.05868E+03  6.790E-01  1.542E+01  6.166E-02  1.226E+00
   1    7    7     5     2    1.0205E+01  2.7894E-01   9.9265E+00  0.000E+00  0.000E+00  0.000E+00  1.05417E+03  6.732E-01  1.519E+01  7.594E-02  1.224E+00
   1    8    7     5     3    9.9265E+00  1.9221E-01   9.7343E+00  0.000E+00  0.000E+00  0.000E+00  1.04992E+03  6.676E-01  1.497E+01  5.241E-02  1.223E+00
   1    8    6     5     4    9.7343E+00  1.3577E-01   9.5985E+00  0.000E+00  0.000E+00  0.000E+00  1.04691E+03  6.637E-01  1.482E+01  3.706E-02  1.221E+00
   1    9    6     6     1    9.5985E+00  2.2097E-01   9.3776E+00  0.000E+00  0.000E+00  0.000E+00  1.04341E+03  6.828E-01  1.200E+01  6.000E-02  1.228E+00
   1   10    7     6     2    9.3776E+00  2.2039E-01   9.1572E+00  0.000E+00  0.000E+00  0.000E+00  1.03885E+03  6.732E-01  1.200E+01  6.000E-02  1.224E+00
   1   11    7     6     3    9.1572E+00  2.1981E-01   8.9374E+00  0.000E+00  0.000E+00  0.000E+00  1.03430E+03  6.636E-01  1.200E+01  6.000E-02  1.221E+00
   1   12    7     6     4    8.9374E+00  2.1923E-01   8.7181E+00  0.000E+00  0.000E+00  0.000E+00  1.02974E+03  6.539E-01  1.200E+01  6.000E-02  1.218E+00
   1   13    7     6     5    8.7181E+00  3.3100E-03   8.7148E+00  0.000E+00  0.000E+00  0.000E+00  1.02656E+03  6.489E-01  1.200E+01  2.400E-02  4.597E-02
   1   14    9     7     1    1.5000E+02  1.4069E+00   1.4859E+02  0.000E+00  0.000E+00  0.000E+00  1.03987E+03  2.288E+00  5.529E+01  5.593E-01  8.385E-01
   1   13    8     7     2    1.4859E+02  2.0509E+00   1.4654E+02  0.000E+00  0.000E+00  0.000E+00  1.03478E+03  2.278E+00  5.525E+01  6.147E-01  1.112E+00
   1   13    7     7     3    1.4654E+02  1.8242E+00   1.4472E+02  0.000E+00  0.000E+00  0.000E+00  1.02969E+03  2.268E+00  5.521E+01  5.583E-01  1.089E+00
   1   13    6     8     1    1.5343E+02  1.1678E+00   1.5226E+02  0.000E+00  0.000E+00  0.000E+00  1.02471E+03  2.837E+00  4.113E+01  4.192E-01  9.287E-01
   1   13    5     8     2    1.5226E+02  4.1334E-01   1.5185E+02  0.000E+00  0.000E+00  0.000E+00  1.01846E+03  2.831E+00  4.105E+01  4.183E-01  3.293E-01
   1   13    4     8     3    1.5185E+02 -1.6083E+00   1.5346E+02  0.000E+00  0.000E+00  0.000E+00  1.01221E+03  2.835E+00  4.111E+01  4.190E+00 -1.280E-01
   1   13    3     8     4    1.5346E+02 -3.2260E+00   1.5669E+02  0.000E+00  0.000E+00  0.000E+00  1.00598E+03  2.852E+00  4.136E+01  4.214E+00 -2.552E-01
   1   13    2     8     5    1.5669E+02 -2.4723E+00   1.5916E+02  0.000E+00  0.000E+00  0.000E+00  9.99747E+02  2.872E+00  4.164E+01  4.243E+00 -1.942E-01
   1   13    1     8     6    1.5916E+02 -1.9547E+00   1.6111E+02  0.000E+00  0.000E+00  0.000E+00  9.94762E+02  2.887E+00  4.186E+01  2.559E+00 -2.546E-01
   1    8    6     9     1    9.7913E+00  0.0000E+00   9.7913E+00  0.000E+00  0.000E+00  0.000E+00  1.08099E+03  2.238E+00  4.000E+00  0.000E+00  1.746E+00
   1    8    5     9     2    9.7913E+00  0.0000E+00   9.7913E+00  0.000E+00  0.000E+00  0.000E+00  1.08049E+03  2.238E+00  4.000E+00  0.000E+00  1.746E+00





UNSATURATED ZONE PACKAGE VOLUMETRIC BUDGET FOR  TIME STEP    30 STRESS PERIOD   45
  ------------------------------------------------------------------------------



     CUMULATIVE VOLUMES      L**3       RATES FOR THIS TIME STEP      L**3/T
     ------------------                 ------------------------

           IN:                                      IN:
           ---                                      ---
        INFILTRATION =  2150195789.7259          INFILTRATION =          49.6159

          OUT:                                     OUT:
          ----                                     ----
              UZF ET =  1666070894.6080                UZF ET =          49.5810
        UZF RECHARGE =   194118657.1014          UZF RECHARGE =          76.9652

            IN - OUT =   290006238.0164              IN - OUT =         -76.9303

          STORAGE:                                 STORAGE:
          --------                                 --------
      STORAGE CHANGE =   290006486.0502        STORAGE CHANGE =         -76.9303

 PERCENT DISCREPANCY IS DIFFERENCE BETWEEN IN-OUT MINUS CHANGE IN STORAGE
 DIVIDED BY THE AVERAGE OF IN AND OUT TIMES 100

 PERCENT DISCREPANCY =          -0.00     PERCENT DISCREPANCY =           0.00






1
  VOLUMETRIC BUDGET FOR AGRICULTURAL FIELDS AT  END OF TIME STEP   30, STRESS PERIOD  45
  ------------------------------------------------------------------------------

     CUMULATIVE VOLUMES      L**3       RATES FOR THIS TIME STEP      L**3/T
     ------------------                 ------------------------

           IN:                                      IN:
           ---                                      ---
               AG WELLS  =  1333873664.0000                 AG WELLS  =          38.9769
      DIVERSION SEGMENTS =   718280448.0000        DIVERSION SEGMENTS =           9.7913
       IRRIGATION PONDS  =           0.0000         IRRIGATION PONDS  =           0.0000
           GW IRRIGATION =           0.0000             GW IRRIGATION =           0.0000
           SW IRRIGATION =           0.0000             SW IRRIGATION =           0.0000
        SYSTEM LOSSES GW =           0.0000          SYSTEM LOSSES GW =           0.0000
        SYSTEM LOSSES SW =           0.0000          SYSTEM LOSSES SW =           0.0000

                TOTAL IN =  2052154112.0000                  TOTAL IN =          48.7682

          OUT:                                     OUT:
          ----                                     ----
               AG WELLS  =           0.0000                 AG WELLS  =           0.0000
      DIVERSION SEGMENTS =           0.0000        DIVERSION SEGMENTS =           0.0000
       IRRIGATION PONDS  =           0.0000         IRRIGATION PONDS  =           0.0000
           GW IRRIGATION =  1333873664.0000             GW IRRIGATION =          38.9769
           SW IRRIGATION =   718293376.0000             SW IRRIGATION =           9.7915
        SYSTEM LOSSES GW =           0.0000          SYSTEM LOSSES GW =           0.0000
        SYSTEM LOSSES SW =           0.0000          SYSTEM LOSSES SW =           0.0000

               TOTAL OUT =  2052167040.0000                 TOTAL OUT =          48.7684

                IN - OUT =      -12928.0000                  IN - OUT =      -1.9836E-04

     PERCENT DISCREPANCY =          -0.00         PERCENT DISCREPANCY =          -0.00



1
  VOLUMETRIC BUDGET FOR ENTIRE MODEL AT END OF TIME STEP   30, STRESS PERIOD  45
  ------------------------------------------------------------------------------

     CUMULATIVE VOLUMES      L**3       RATES FOR THIS TIME STEP      L**3/T
     ------------------                 ------------------------

           IN:                                      IN:
           ---                                      ---
             STORAGE     =  1895753600.0000               STORAGE     =          20.3936
       CONSTANT HEAD     =           0.0000         CONSTANT HEAD     =           0.0000
     HEAD DEP BOUNDS     =    33452096.0000       HEAD DEP BOUNDS     =           0.2906
      STREAM LEAKAGE     =  1395920384.0000        STREAM LEAKAGE     =          12.2316
        UZF RECHARGE     =   194118752.0000          UZF RECHARGE     =          76.9652
               GW ET     =           0.0000                 GW ET     =           0.0000
     SURFACE LEAKAGE     =           0.0000       SURFACE LEAKAGE     =           0.0000
           AG WELLS      =           0.0000             AG WELLS      =           0.0000

                TOTAL IN =  3519244800.0000                  TOTAL IN =         109.8810

          OUT:                                     OUT:
          ----                                     ----
             STORAGE     =  1021074752.0000               STORAGE     =          61.3584
       CONSTANT HEAD     =           0.0000         CONSTANT HEAD     =           0.0000
     HEAD DEP BOUNDS     =    33322310.0000       HEAD DEP BOUNDS     =           0.2860
      STREAM LEAKAGE     =  1130947200.0000        STREAM LEAKAGE     =           9.2614
        UZF RECHARGE     =           0.0000          UZF RECHARGE     =           0.0000
               GW ET     =           0.0000                 GW ET     =           0.0000
     SURFACE LEAKAGE     =           0.0000       SURFACE LEAKAGE     =           0.0000
           AG WELLS      =  1333873664.0000             AG WELLS      =          38.9769

               TOTAL OUT =  3519217920.0000                 TOTAL OUT =         109.8826

                IN - OUT =       26880.0000                  IN - OUT =      -1.6632E-03

     PERCENT DISCREPANCY =           0.00         PERCENT DISCREPANCY =          -0.00






         TIME SUMMARY AT END OF TIME STEP   30 IN STRESS PERIOD   45
                    SECONDS     MINUTES      HOURS       DAYS        YEARS
                    -----------------------------------------------------------
   TIME STEP LENGTH  87667.      1461.1      24.352      1.0147     2.77799E-03
 STRESS PERIOD TIME 2.63000E+06  43833.      730.56      30.440     8.33397E-02
         TOTAL TIME 1.15805E+08 1.93009E+06  32168.      1340.3      3.6696    
1
1
                            STRESS PERIOD NO.   46, LENGTH =   2630000.    
                            -----------------------------------------------

                              NUMBER OF TIME STEPS =    30

                               MULTIPLIER FOR DELT =     1.000

                            INITIAL TIME STEP SIZE =   87666.66    

 REUSING NON-PARAMETER GHB CELLS FROM LAST STRESS PERIOD

      2 GHB CELLS

 REUSING STREAM SEGMENT DATA FROM LAST STRESS PERIOD



            AREAL INFILTRATION RATE
 READING ON UNIT   19 WITH FORMAT: (FREE)              

            1           2           3           4           5           6           7           8           9          10
 ........................................................................................................................
   1   1.0000E-10  2.0000E-10   0.000       0.000       0.000       0.000       0.000       0.000       0.000       0.000    
   2   2.0000E-10  1.0000E-10  2.0000E-10   0.000       0.000      8.0000E-10  8.0000E-10  5.0000E-10   0.000       0.000    
   3    0.000      5.0000E-10  1.0000E-10  1.0000E-10  8.0000E-10  8.0000E-10  5.0000E-10  5.0000E-10   0.000       0.000    
   4   8.0000E-10  5.0000E-10  1.0000E-10  1.0000E-10  1.0000E-10  1.0000E-10  1.0000E-10  1.0000E-10  2.0000E-10   0.000    
   5   8.0000E-10  5.0000E-10  1.0000E-10  1.0000E-10  1.0000E-10  1.0000E-10  1.0000E-10  1.0000E-10  1.0000E-10  1.0000E-10
   6   8.0000E-10  5.0000E-10  5.0000E-10  2.0000E-10  2.0000E-10  1.0000E-10  1.0000E-10  1.0000E-10  1.0000E-10  5.0000E-10
   7   8.0000E-10  5.0000E-10  5.0000E-10  2.0000E-10  2.0000E-10  1.0000E-10  1.0000E-10  2.0000E-10  2.0000E-10   0.000    
   8    0.000      5.0000E-10  5.0000E-10  2.0000E-10  2.0000E-10  1.0000E-10  1.0000E-10  2.0000E-10  5.0000E-10   0.000    
   9    0.000      5.0000E-10  5.0000E-10  2.0000E-10  2.0000E-10  1.0000E-10  1.0000E-10  2.0000E-10  5.0000E-10   0.000    
  10    0.000      5.0000E-10  5.0000E-10  2.0000E-10  2.0000E-10  1.0000E-10  1.0000E-10  2.0000E-10  5.0000E-10  8.0000E-10
  11    0.000      1.0000E-10  1.0000E-10  1.0000E-10  1.0000E-10  1.0000E-10  1.0000E-10  2.0000E-10  5.0000E-10   0.000    
  12   1.0000E-10  1.0000E-10  1.0000E-10  1.0000E-10  1.0000E-10  1.0000E-10  1.0000E-10  1.0000E-10  2.0000E-10   0.000    
  13   1.0000E-10  1.0000E-10  2.0000E-10  2.0000E-10  2.0000E-10  2.0000E-10  2.0000E-10  1.0000E-10  1.0000E-10   0.000    
  14    0.000      2.0000E-10  5.0000E-10  5.0000E-10  5.0000E-10  5.0000E-10  5.0000E-10  2.0000E-10  1.0000E-10   0.000    
  15    0.000       0.000      8.0000E-10  8.0000E-10  8.0000E-10  8.0000E-10   0.000       0.000       0.000       0.000    

                  ET RATE =  7.500000E-08

 USING ET EXTINCTION DEPTH FROM PREVIOUS STRESS PERIOD. CURRENT PERIOD IS:      46

 USING EXTINCTION WATER CONTENT FROM PREVIOUS STRESS PERIOD. CURRENT PERIOD IS:      46

 USING AIR ENTRY PRESSURE FROM PREVIOUS STRESS PERIOD. CURRENT PERIOD IS:      46

 USING ROOT PRESSURE HEAD FROM PREVIOUS STRESS PERIOD. CURRENT PERIOD IS:      46

 USING ROOT ACTIVITY FROM PREVIOUS STRESS PERIOD. CURRENT PERIOD IS:      46

 PROCESSING AG STRESS PERIOD DATA

 READING AG STRESS PERIOD DATA

 READING IRRIGATION SEGMENT

 READING IRRIGATION WELL

 READING SUPPLEMENTAL WELL

 NO IRRPOND OR REUSING IRRPOND DATA FROM LAST STRESS PERIOD

 END PROCESSING AG STRESS PERIOD DATA OPTIONS
 
 SOLVING FOR HEAD 
                                                   Max.-Head-Change                         Max.-Flux-Residual
  Residual-Control   Outer-Iter.   Inner-Iter.     Column Row Layer    Maximum-Head-Change  Column Row Layer    Maximum-Flux-Residual          L2-NORM 
          0                 1           2             4    6     1       0.4540279761E+00       4    6    1         0.2424589984E+02      0.3568024604E+02
          0                 2           2             4    6     1       0.1988948369E+00       4    6    1         0.1061309074E+02      0.1540547185E+02
          0                 3           2             4    6     1       0.8925124922E-01       4    6    1         0.4764267562E+01      0.6882871053E+01
          0                 4           2             4    6     1       0.4004403116E-01       4    6    1         0.2137763082E+01      0.3079800903E+01
          0                 5           2             4    6     1       0.1796382510E-01       4    6    1         0.9591225892E+00      0.1378223298E+01
          0                 6           2             4    6     1       0.8057519022E-02       4    6    1         0.4302529349E+00      0.6167810250E+00
          0                 7           2             4    6     1       0.3613673437E-02       4    6    1         0.1929816540E+00      0.2760271106E+00
          0                 8           2             4    6     1       0.1620484217E-02       4    6    1         0.8654734307E-01      0.1235322661E+00
          0                 9           2             4    6     1       0.7265945411E-03       4    6    1         0.3880970686E-01      0.5528611822E-01
          0                10           2             4    6     1       0.3257570117E-03       4    6    1         0.1740118987E-01      0.2474332862E-01
                                                   Max.-Head-Change                         Max.-Flux-Residual
  Residual-Control   Outer-Iter.   Inner-Iter.     Column Row Layer    Maximum-Head-Change  Column Row Layer    Maximum-Flux-Residual          L2-NORM 
          0                11           2             4    6     1       0.1460334841E-03       4    6    1         0.7801396654E-02      0.1107403447E-01
          0                12           1             4    6     1       0.6545920357E-04       4    6    1         0.3497222722E-02      0.4956313810E-02

    ------------------------------------------------
       NWT REQUIRED           12 OUTER ITERATIONS 
       AND A TOTAL OF         23 INNER ITERATIONS.
    ------------------------------------------------

 NO OUTPUT CONTROL FOR STRESS PERIOD   46   TIME STEP    1
 
 SOLVING FOR HEAD 
                                                   Max.-Head-Change                         Max.-Flux-Residual
  Residual-Control   Outer-Iter.   Inner-Iter.     Column Row Layer    Maximum-Head-Change  Column Row Layer    Maximum-Flux-Residual          L2-NORM 
          0                 1           2             4    6     1       0.4279012776E+00       4    6    1         0.2296320754E+02      0.3097183142E+02
          0                 2           2             4    6     1       0.1897550012E+00       4    6    1         0.1021843822E+02      0.1331681203E+02
          0                 3           2             4    6     1       0.6789820427E-01       4    6    1         0.3674265781E+01      0.4993017261E+01
          0                 4           2             4    6     1       0.4602377503E-01       4    6    1         0.2466912736E+01      0.3677636170E+01
          0                 5           2             4    6     1       0.2086302037E-01       4    6    1         0.1121791661E+01      0.1506088974E+01
          0                 6           2             4    6     1       0.8640508457E-02       4    6    1         0.4656655255E+00      0.6216833702E+00
          0                 7           2             5    8     1      -0.1957332645E-02       5    7    1        -0.1149485590E+00      0.2584730283E+00
          0                 8           2             4    6     1       0.3462353162E-02       4    6    1         0.1842950796E+00      0.3730108329E+00
          0                 9           2             4    6     1       0.1598813408E-02       4    6    1         0.8563327170E-01      0.1238684346E+00
          0                10           2             4    6     1       0.6578357388E-03       4    6    1         0.3537168946E-01      0.4923980259E-01
                                                   Max.-Head-Change                         Max.-Flux-Residual
  Residual-Control   Outer-Iter.   Inner-Iter.     Column Row Layer    Maximum-Head-Change  Column Row Layer    Maximum-Flux-Residual          L2-NORM 
          0                11           2             4    8     1      -0.1653302411E-02       5    8    1        -0.1004296357E+00      0.2353092265E+00
          0                12           2             4    8     1       0.1573678057E-02       5    8    1         0.9860101788E-01      0.2028853471E+00
          0                13           2             4    8     1      -0.2469143077E-02       5    8    1        -0.1583577489E+00      0.3624336605E+00
          0                14           2             4    7     1      -0.1090883048E-02       4    7    1        -0.6309377361E-01      0.1035233908E+00
          0                15           2             4    8     1       0.1453954763E-02       5    8    1         0.9607551446E-01      0.2079859991E+00
          0                16           2             4    7     1       0.2629471165E-03       4    7    1         0.1581498599E-01      0.2526159232E-01
          0                17           2             4    8     1      -0.2875561192E-03       5    8    1        -0.1957450721E-01      0.3991750169E-01
          0                18           2             4    7     1      -0.2242954742E-02       4    7    1        -0.1344007039E+00      0.3260683275E+00
          0                19           2             4    7     1      -0.1161953930E-02       4    7    1        -0.7084057746E-01      0.1156528672E+00
          0                20           2             4    7     1      -0.6008320868E-03       4    7    1        -0.3686780094E-01      0.5400195149E-01
                                                   Max.-Head-Change                         Max.-Flux-Residual
  Residual-Control   Outer-Iter.   Inner-Iter.     Column Row Layer    Maximum-Head-Change  Column Row Layer    Maximum-Flux-Residual          L2-NORM 
          0                21           2             4    7     1      -0.3103787599E-03       4    7    1        -0.1909667684E-01      0.2716912551E-01
          0                22           2             4    7     1      -0.1602524718E-03       4    7    1        -0.9872011909E-02      0.1392817609E-01
          0                23           1             4    7     1      -0.8271731092E-04       4    7    1        -0.5098656530E-02      0.7175553214E-02

    ------------------------------------------------
       NWT REQUIRED           23 OUTER ITERATIONS 
       AND A TOTAL OF         45 INNER ITERATIONS.
    ------------------------------------------------

 NO OUTPUT CONTROL FOR STRESS PERIOD   46   TIME STEP    2
 
 SOLVING FOR HEAD 
                                                   Max.-Head-Change                         Max.-Flux-Residual
  Residual-Control   Outer-Iter.   Inner-Iter.     Column Row Layer    Maximum-Head-Change  Column Row Layer    Maximum-Flux-Residual          L2-NORM 
          0                 1           2             4    6     1       0.3966634091E+00       4    6    1         0.2145454242E+02      0.2633820698E+02
          0                 2           2             4    6     1       0.1737218361E+00       4    6    1         0.9455117717E+01      0.9526203363E+01
          0                 3           2             4    6     1       0.5928725312E-01       4    6    1         0.3258271839E+01      0.3788230214E+01
          0                 4           2             4    6     1       0.4242603746E-01       4    6    1         0.2287422093E+01      0.3015124037E+01
          0                 5           2             4    6     1       0.1562569996E-01       4    6    1         0.8553533612E+00      0.9172466528E+00
          0                 6           2             4    6     1       0.6700211051E-02       4    6    1         0.3656441512E+00      0.3662993343E+00
          0                 7           2             4    6     1       0.2659566925E-02       4    6    1         0.1454524578E+00      0.1491194344E+00
          0                 8           2             4    6     1       0.8339358681E-03       4    6    1         0.4602185825E-01      0.6135762485E-01
          0                 9           2             4    7     1      -0.2933476153E-02       5    7    1        -0.1669401586E+00      0.3962773948E+00
          0                10           2             4    6     1      -0.4212400553E-02       4    6    1        -0.2308007873E+00      0.4514623894E+00
                                                   Max.-Head-Change                         Max.-Flux-Residual
  Residual-Control   Outer-Iter.   Inner-Iter.     Column Row Layer    Maximum-Head-Change  Column Row Layer    Maximum-Flux-Residual          L2-NORM 
          0                11           2             4    6     1      -0.2238789851E-02       4    6    1        -0.1245084405E+00      0.1436718126E+00
          0                12           2             4    6     1      -0.1359273842E-02       4    6    1        -0.7551912587E-01      0.8987722337E-01
          0                13           2             4    6     1      -0.4036207838E-02       4    6    1        -0.2205713893E+00      0.4740528070E+00
          0                14           2             4    6     1      -0.1834383421E-02       4    6    1        -0.1023610038E+00      0.1101700477E+00
          0                15           2             4    6     1      -0.8312756121E-03       4    6    1        -0.4652840307E-01      0.4692940013E-01
          0                16           2             4    6     1      -0.3763481069E-03       4    6    1        -0.2108329509E-01      0.2110716292E-01
          0                17           2             4    6     1      -0.1703328882E-03       4    6    1        -0.9544744197E-02      0.9546903922E-02
          0                18           1             4    6     1      -0.7708324750E-04       4    6    1        -0.4319772081E-02      0.4320161815E-02

    ------------------------------------------------
       NWT REQUIRED           18 OUTER ITERATIONS 
       AND A TOTAL OF         35 INNER ITERATIONS.
    ------------------------------------------------

 NO OUTPUT CONTROL FOR STRESS PERIOD   46   TIME STEP    3
 
 SOLVING FOR HEAD 
                                                   Max.-Head-Change                         Max.-Flux-Residual
  Residual-Control   Outer-Iter.   Inner-Iter.     Column Row Layer    Maximum-Head-Change  Column Row Layer    Maximum-Flux-Residual          L2-NORM 
          0                 1           2             4    6     1       0.3616601335E+00       4    6    1         0.1971982135E+02      0.2019811782E+02
          0                 2           2             4    6     1       0.1578191610E+00       4    6    1         0.8604201940E+01      0.8615419656E+01
          0                 3           2             4    6     1       0.5185878965E-01       4    6    1         0.2854867350E+01      0.3493061622E+01
          0                 4           2             4    6     1       0.3913704370E-01       4    6    1         0.2108379241E+01      0.2876367120E+01
          0                 5           2             4    6     1       0.1689206080E-01       4    6    1         0.9201551764E+00      0.9318918688E+00
          0                 6           2             4    6     1       0.7091227380E-02       4    6    1         0.3869453373E+00      0.3878368937E+00
          0                 7           2             4    6     1       0.2438191270E-02       4    6    1         0.1339947027E+00      0.1549886467E+00
          0                 8           2             4    6     1       0.7457883741E-03       4    6    1         0.4124941349E-01      0.5907095611E-01
          0                 9           2             4    7     1      -0.8759291569E-03       5    7    1        -0.5021981681E-01      0.1116306497E+00
          0                10           2             4    6     1      -0.5050576660E-03       4    6    1        -0.2777312404E-01      0.4752422078E-01
                                                   Max.-Head-Change                         Max.-Flux-Residual
  Residual-Control   Outer-Iter.   Inner-Iter.     Column Row Layer    Maximum-Head-Change  Column Row Layer    Maximum-Flux-Residual          L2-NORM 
          0                11           2             4    6     1      -0.5346245864E-03       4    6    1        -0.2941838321E-01      0.4975537453E-01
          0                12           2             4    6     1      -0.1398733202E-02       4    6    1        -0.7646433647E-01      0.1624357301E+00
          0                13           2             4    6     1      -0.8800996693E-03       4    6    1        -0.4877416235E-01      0.6305614863E-01
          0                14           2             4    6     1      -0.6913303982E-03       4    6    1        -0.3821836778E-01      0.5449826351E-01
          0                15           2             4    6     1      -0.2049991533E-02       4    6    1        -0.1120171952E+00      0.2414342378E+00
          0                16           2             4    6     1      -0.1191177230E-02       4    6    1        -0.6610859319E-01      0.8129173605E-01
          0                17           2             4    6     1      -0.8582058062E-03       4    6    1        -0.4751581889E-01      0.6397716947E-01
          0                18           2             4    6     1      -0.3492485114E-02       4    6    1        -0.1906233135E+00      0.4255641709E+00
          0                19           2             4    6     1      -0.1911950632E-02       4    6    1        -0.1062201627E+00      0.1264050687E+00
          0                20           2             4    6     1      -0.1196422918E-02       4    6    1        -0.6641892962E-01      0.8110440012E-01
                                                   Max.-Head-Change                         Max.-Flux-Residual
  Residual-Control   Outer-Iter.   Inner-Iter.     Column Row Layer    Maximum-Head-Change  Column Row Layer    Maximum-Flux-Residual          L2-NORM 
          0                21           2             4    6     1      -0.3583899963E-02       4    6    1        -0.1958358804E+00      0.4216169659E+00
          0                22           2             4    6     1      -0.1964804161E-02       4    6    1        -0.1091673921E+00      0.1292874873E+00
          0                23           2             4    6     1      -0.1233632994E-02       4    6    1        -0.6848013692E-01      0.8373065406E-01
          0                24           2             4    6     1      -0.9027420195E-03       4    6    1        -0.4997350946E-01      0.6751061799E-01
          0                25           2             4    6     1      -0.4535776926E-03       4    6    1        -0.2529518265E-01      0.2691946832E-01
          0                26           2             4    6     1      -0.2054601595E-03       4    6    1        -0.1150150072E-01      0.1157128748E-01
          0                27           1             4    6     1      -0.9299580888E-04       4    6    1        -0.5209755691E-02      0.5214090286E-02

    ------------------------------------------------
       NWT REQUIRED           27 OUTER ITERATIONS 
       AND A TOTAL OF         53 INNER ITERATIONS.
    ------------------------------------------------

 NO OUTPUT CONTROL FOR STRESS PERIOD   46   TIME STEP    4
 
 SOLVING FOR HEAD 
                                                   Max.-Head-Change                         Max.-Flux-Residual
  Residual-Control   Outer-Iter.   Inner-Iter.     Column Row Layer    Maximum-Head-Change  Column Row Layer    Maximum-Flux-Residual          L2-NORM 
          0                 1           2             4    6     1       0.3298265056E+00       4    6    1         0.1795893437E+02      0.1847003048E+02
          0                 2           2             4    6     1       0.1435013425E+00       4    6    1         0.7825838147E+01      0.7838676723E+01
          0                 3           2             4    6     1       0.4602754950E-01       4    6    1         0.2536145245E+01      0.3204679684E+01
          0                 4           2             4    6     1       0.3629630987E-01       4    6    1         0.1953989027E+01      0.2740392137E+01
          0                 5           2             4    6     1       0.1245871840E-01       4    6    1         0.6835310517E+00      0.7832745791E+00
          0                 6           2             4    6     1       0.5095760132E-02       4    6    1         0.2786032418E+00      0.2833453228E+00
          0                 7           2             5    7     1      -0.1365700098E-02       5    7    1        -0.7845708328E-01      0.1750235481E+00
          0                 8           2             5    7     1      -0.4856994585E-03       5    7    1        -0.2819171661E-01      0.4874118889E-01
          0                 9           2             4    7     1      -0.1756836027E-02       5    7    1        -0.9978961192E-01      0.2371858681E+00
          0                10           2             4    6     1      -0.1135174139E-02       4    6    1        -0.6283027276E-01      0.8515636007E-01
                                                   Max.-Head-Change                         Max.-Flux-Residual
  Residual-Control   Outer-Iter.   Inner-Iter.     Column Row Layer    Maximum-Head-Change  Column Row Layer    Maximum-Flux-Residual          L2-NORM 
          0                11           2             4    6     1      -0.3841789516E-02       4    6    1        -0.2098307192E+00      0.4600073137E+00
          0                12           2             4    6     1      -0.4883881569E-02       4    6    1        -0.2681828286E+00      0.4877440039E+00
          0                13           2             4    6     1      -0.2556666783E-02       4    6    1        -0.1422835483E+00      0.1609561538E+00
          0                14           2             4    6     1      -0.1500818703E-02       4    6    1        -0.8345445390E-01      0.9670684348E-01
          0                15           2             4    6     1      -0.1023436264E-02       4    6    1        -0.5674258154E-01      0.7273102848E-01
          0                16           2             4    6     1      -0.3836434153E-02       4    6    1        -0.2094698121E+00      0.4634440648E+00
          0                17           2             4    6     1      -0.1743650849E-02       4    6    1        -0.9728509462E-01      0.1052126405E+00
          0                18           2             4    6     1      -0.7900992995E-03       4    6    1        -0.4422289231E-01      0.4462981886E-01
          0                19           2             4    6     1      -0.3576664713E-03       4    6    1        -0.2003704098E-01      0.2006112708E-01
          0                20           2             4    6     1      -0.1618579030E-03       4    6    1        -0.9070074381E-02      0.9072231339E-02
          0                21           1             4    6     1      -0.7323871346E-04       4    6    1        -0.4104442340E-02      0.4104828256E-02

    ------------------------------------------------
       NWT REQUIRED           21 OUTER ITERATIONS 
       AND A TOTAL OF         41 INNER ITERATIONS.
    ------------------------------------------------

 NO OUTPUT CONTROL FOR STRESS PERIOD   46   TIME STEP    5
 
 SOLVING FOR HEAD 
                                                   Max.-Head-Change                         Max.-Flux-Residual
  Residual-Control   Outer-Iter.   Inner-Iter.     Column Row Layer    Maximum-Head-Change  Column Row Layer    Maximum-Flux-Residual          L2-NORM 
          0                 1           2             4    6     1       0.3015727523E+00       4    6    1         0.1639664631E+02      0.1699183136E+02
          0                 2           2             4    6     1       0.1048141696E+00       4    6    1         0.5711052051E+01      0.5728555183E+01
          0                 3           2             5    7     1      -0.1720382162E-01       5    6    1        -0.9344704106E+00      0.2151176214E+01
          0                 4           2             4    8     1       0.1695277063E-01       5    6    1         0.9485220074E+00      0.2150814503E+01
          0                 5           2             4    8     1      -0.3211942733E-02       5    6    1        -0.1862016514E+00      0.3321221432E+00
          0                 6           2             5    7     1      -0.3968856243E-03       5    7    1        -0.2304731431E-01      0.4508659228E-01
          0                 7           2             4    7     1      -0.3893339172E-03       5    7    1        -0.2212987585E-01      0.4998369944E-01
          0                 8           2             4    7     1      -0.2267348513E-02       4    7    1        -0.1286215294E+00      0.3106654206E+00
          0                 9           2             4    7     1      -0.6590212433E-03       4    7    1        -0.3767625796E-01      0.7106360343E-01
          0                10           2             4    7     1      -0.3287646630E-02       4    7    1        -0.1865082680E+00      0.4496205437E+00
                                                   Max.-Head-Change                         Max.-Flux-Residual
  Residual-Control   Outer-Iter.   Inner-Iter.     Column Row Layer    Maximum-Head-Change  Column Row Layer    Maximum-Flux-Residual          L2-NORM 
          0                11           2             4    7     1      -0.3644117805E-02       4    7    1        -0.2070774255E+00      0.4710412185E+00
          0                12           2             4    7     1      -0.8664332959E-03       4    7    1        -0.4961998591E-01      0.8982469296E-01
          0                13           2             4    7     1      -0.4590913713E-03       4    7    1        -0.2614589179E-01      0.5530033098E-01
          0                14           2             4    7     1      -0.3369906625E-02       4    7    1        -0.1911397161E+00      0.4630428365E+00
          0                15           2             4    7     1      -0.5010990687E-03       4    7    1        -0.2886926208E-01      0.4971297108E-01
          0                16           1             4    7     1      -0.7445935890E-04       4    7    1        -0.4287575504E-02      0.7252898454E-02

    ------------------------------------------------
       NWT REQUIRED           16 OUTER ITERATIONS 
       AND A TOTAL OF         31 INNER ITERATIONS.
    ------------------------------------------------

 NO OUTPUT CONTROL FOR STRESS PERIOD   46   TIME STEP    6
 
 SOLVING FOR HEAD 
                                                   Max.-Head-Change                         Max.-Flux-Residual
  Residual-Control   Outer-Iter.   Inner-Iter.     Column Row Layer    Maximum-Head-Change  Column Row Layer    Maximum-Flux-Residual          L2-NORM 
          0                 1           2             5    8     1       0.5087306529E-01       5    8    1         0.2769420598E+01      0.4954169320E+01
          0                 2           2             5    8     1      -0.5123476635E-02       5    8    1        -0.2905372093E+00      0.4711648174E+00
          0                 3           2             4    7     1      -0.1783828890E-01       4    6    1        -0.9771661419E+00      0.2360447424E+01
          0                 4           2             4    8     1       0.1707322560E-01       5    6    1         0.9557469086E+00      0.2201139453E+01
          0                 5           2             4    8     1      -0.3255443307E-02       5    6    1        -0.1890817116E+00      0.3708558769E+00
          0                 6           2             4    7     1      -0.2481503347E-02       5    7    1        -0.1411302895E+00      0.3307024106E+00
          0                 7           2             4    7     1      -0.6239452643E-03       4    7    1        -0.3596749960E-01      0.5807257635E-01
          0                 8           2             4    7     1      -0.4186993641E-03       4    7    1        -0.2389040095E-01      0.5033362340E-01
          0                 9           2             4    7     1      -0.1474102970E-02       4    7    1        -0.8368719128E-01      0.1990627314E+00
          0                10           2             4    7     1      -0.5009233491E-03       4    7    1        -0.2875324110E-01      0.5134349868E-01
                                                   Max.-Head-Change                         Max.-Flux-Residual
  Residual-Control   Outer-Iter.   Inner-Iter.     Column Row Layer    Maximum-Head-Change  Column Row Layer    Maximum-Flux-Residual          L2-NORM 
          0                11           2             4    7     1      -0.3887140396E-03       4    7    1        -0.2216014559E-01      0.4740058839E-01
          0                12           2             4    7     1      -0.3142724272E-02       4    7    1        -0.1782924770E+00      0.4311378163E+00
          0                13           2             4    7     1      -0.7880562275E-03       4    7    1        -0.4542834972E-01      0.7319787861E-01
          0                14           2             4    7     1      -0.3362848572E-02       4    7    1        -0.1908651846E+00      0.4564216454E+00
          0                15           2             4    7     1      -0.4927175238E-03       4    7    1        -0.2873389534E-01      0.4075727267E-01
          0                16           1             4    7     1      -0.7217165038E-04       4    7    1        -0.4210176035E-02      0.5879895224E-02

    ------------------------------------------------
       NWT REQUIRED           16 OUTER ITERATIONS 
       AND A TOTAL OF         31 INNER ITERATIONS.
    ------------------------------------------------

 NO OUTPUT CONTROL FOR STRESS PERIOD   46   TIME STEP    7
 
 SOLVING FOR HEAD 
                                                   Max.-Head-Change                         Max.-Flux-Residual
  Residual-Control   Outer-Iter.   Inner-Iter.     Column Row Layer    Maximum-Head-Change  Column Row Layer    Maximum-Flux-Residual          L2-NORM 
          0                 1           2             5    8     1       0.4912931017E-01       5    8    1         0.2671838817E+01      0.4762465747E+01
          0                 2           2             5    8     1      -0.5253221348E-02       5    8    1        -0.2972640900E+00      0.4608284680E+00
          0                 3           2             4    7     1      -0.1754540812E-01       4    6    1        -0.9578700880E+00      0.2317063644E+01
          0                 4           2             4    8     1       0.1653241102E-01       5    6    1         0.9255261334E+00      0.2129727795E+01
          0                 5           2             4    7     1       0.1412274026E-02       4    7    1         0.8131315295E-01      0.1504956006E+00
          0                 6           2             4    8     1      -0.8319038437E-03       4    6    1        -0.4890835523E-01      0.1108110977E+00
          0                 7           2             4    7     1      -0.3587033276E-03       5    7    1        -0.2050410688E-01      0.4081781746E-01
          0                 8           2             4    7     1      -0.3659517864E-03       4    7    1        -0.2083613773E-01      0.4603755543E-01
          0                 9           2             4    7     1      -0.1535500827E-02       4    7    1        -0.8715626094E-01      0.2082369615E+00
          0                10           2             4    7     1      -0.4881783658E-03       4    7    1        -0.2804510109E-01      0.4903655346E-01
                                                   Max.-Head-Change                         Max.-Flux-Residual
  Residual-Control   Outer-Iter.   Inner-Iter.     Column Row Layer    Maximum-Head-Change  Column Row Layer    Maximum-Flux-Residual          L2-NORM 
          0                11           2             4    7     1      -0.3965201926E-03       4    7    1        -0.2259982039E-01      0.4864746084E-01
          0                12           2             4    7     1      -0.3081088931E-02       4    7    1        -0.1747999398E+00      0.4224693345E+00
          0                13           2             4    7     1      -0.7766526863E-03       4    7    1        -0.4476723141E-01      0.7226827602E-01
          0                14           2             4    7     1      -0.3124351338E-02       4    7    1        -0.1773398487E+00      0.4234547332E+00
          0                15           2             4    7     1      -0.7819419476E-03       4    7    1        -0.4507676044E-01      0.7258637449E-01
          0                16           2             4    7     1      -0.3214444047E-02       4    7    1        -0.1824459117E+00      0.4358871572E+00
          0                17           2             4    7     1      -0.4709200456E-03       4    7    1        -0.2746231742E-01      0.3895249278E-01
          0                18           1             4    7     1      -0.6897098013E-04       4    7    1        -0.4023388154E-02      0.5618922947E-02

    ------------------------------------------------
       NWT REQUIRED           18 OUTER ITERATIONS 
       AND A TOTAL OF         35 INNER ITERATIONS.
    ------------------------------------------------

 NO OUTPUT CONTROL FOR STRESS PERIOD   46   TIME STEP    8
 
 SOLVING FOR HEAD 
                                                   Max.-Head-Change                         Max.-Flux-Residual
  Residual-Control   Outer-Iter.   Inner-Iter.     Column Row Layer    Maximum-Head-Change  Column Row Layer    Maximum-Flux-Residual          L2-NORM 
          0                 1           2             5    8     1       0.4750344420E-01       5    8    1         0.2580951923E+01      0.4586396908E+01
          0                 2           2             5    8     1      -0.5984514669E-02       5    8    1        -0.3371379130E+00      0.4872478072E+00
          0                 3           2             4    7     1      -0.1608909342E-01       4    6    1        -0.8713630135E+00      0.2113190742E+01
          0                 4           2             4    8     1       0.1565323340E-01       5    6    1         0.8762402833E+00      0.2020624002E+01
          0                 5           2             4    7     1       0.1394829655E-02       4    7    1         0.8018836024E-01      0.1428827054E+00
          0                 6           2             4    6     1      -0.2584985535E-03       4    6    1        -0.1543902806E-01      0.3050944958E-01
          0                 7           2             4    7     1      -0.3382604249E-03       5    7    1        -0.1924676232E-01      0.4553788064E-01
          0                 8           2             4    7     1      -0.1114614580E-02       4    7    1        -0.6328416595E-01      0.1501561054E+00
          0                 9           2             4    7     1      -0.2358342622E-02       4    7    1        -0.1339923883E+00      0.3122663277E+00
          0                10           2             4    7     1      -0.6123876611E-03       4    7    1        -0.3528316815E-01      0.5759501543E-01
                                                   Max.-Head-Change                         Max.-Flux-Residual
  Residual-Control   Outer-Iter.   Inner-Iter.     Column Row Layer    Maximum-Head-Change  Column Row Layer    Maximum-Flux-Residual          L2-NORM 
          0                11           2             4    7     1      -0.4198774919E-03       4    7    1        -0.2395389998E-01      0.5035336097E-01
          0                12           2             4    7     1      -0.3184866641E-02       4    7    1        -0.1806904208E+00      0.4365684183E+00
          0                13           2             4    7     1      -0.7972012440E-03       4    7    1        -0.4595700176E-01      0.7400309118E-01
          0                14           2             4    7     1      -0.3276098580E-02       4    7    1        -0.1859494270E+00      0.4442547920E+00
          0                15           2             4    7     1      -0.7990621656E-03       4    7    1        -0.4608346333E-01      0.7352470920E-01
          0                16           2             4    7     1      -0.4439779580E-03       4    7    1        -0.2536352344E-01      0.5142282473E-01
          0                17           2             4    7     1      -0.3295190779E-02       4    7    1        -0.1869426426E+00      0.4515485097E+00
          0                18           2             4    7     1      -0.4827251062E-03       4    7    1        -0.2815027628E-01      0.3994673424E-01
          0                19           1             4    7     1      -0.7069634917E-04       4    7    1        -0.4123970985E-02      0.5760488613E-02

    ------------------------------------------------
       NWT REQUIRED           19 OUTER ITERATIONS 
       AND A TOTAL OF         37 INNER ITERATIONS.
    ------------------------------------------------

 NO OUTPUT CONTROL FOR STRESS PERIOD   46   TIME STEP    9
 
 SOLVING FOR HEAD 
                                                   Max.-Head-Change                         Max.-Flux-Residual
  Residual-Control   Outer-Iter.   Inner-Iter.     Column Row Layer    Maximum-Head-Change  Column Row Layer    Maximum-Flux-Residual          L2-NORM 
          0                 1           2             5    8     1       0.4603936001E-01       5    8    1         0.2499150205E+01      0.4427724810E+01
          0                 2           2             5    8     1      -0.5658695881E-02       5    8    1        -0.3188593893E+00      0.4641472174E+00
          0                 3           2             4    7     1      -0.1668056859E-01       4    6    1        -0.9032655458E+00      0.2192317544E+01
          0                 4           2             4    8     1       0.1588021772E-01       5    6    1         0.8889959427E+00      0.2047353864E+01
          0                 5           2             4    7     1       0.1403466019E-02       4    7    1         0.8069993565E-01      0.1445204382E+00
          0                 6           2             4    6     1      -0.2701420904E-03       4    6    1        -0.1612870501E-01      0.3204371619E-01
          0                 7           2             4    7     1      -0.9335231895E-03       5    7    1        -0.5300363971E-01      0.1280580014E+00
          0                 8           2             4    7     1      -0.4163392653E-03       4    7    1        -0.2382937840E-01      0.4584619135E-01
          0                 9           2             4    7     1      -0.1325955351E-02       4    7    1        -0.7528641731E-01      0.1784984913E+00
          0                10           2             4    7     1      -0.4897300814E-03       4    7    1        -0.2808361172E-01      0.5140449763E-01
                                                   Max.-Head-Change                         Max.-Flux-Residual
  Residual-Control   Outer-Iter.   Inner-Iter.     Column Row Layer    Maximum-Head-Change  Column Row Layer    Maximum-Flux-Residual          L2-NORM 
          0                11           2             4    7     1      -0.2730719261E-02       4    7    1        -0.1549573523E+00      0.3726022289E+00
          0                12           2             4    7     1      -0.6949705186E-03       4    7    1        -0.4005328891E-01      0.6488338134E-01
          0                13           2             4    7     1      -0.4127936600E-03       4    7    1        -0.2357134865E-01      0.4837772265E-01
          0                14           2             4    7     1      -0.2451688275E-02       4    7    1        -0.1391130603E+00      0.3348394984E+00
          0                15           2             4    7     1      -0.6588649613E-03       4    7    1        -0.3793879609E-01      0.6265711615E-01
          0                16           2             4    7     1      -0.4024379153E-03       4    7    1        -0.2297485756E-01      0.4737862861E-01
          0                17           2             4    7     1      -0.3850998720E-03       4    7    1        -0.2193073594E-01      0.4809812546E-01
          0                18           2             4    7     1      -0.3169841149E-02       4    7    1        -0.1798197130E+00      0.4349251179E+00
          0                19           2             4    7     1      -0.4643362394E-03       4    7    1        -0.2707766029E-01      0.3842776847E-01
          0                20           1             4    7     1      -0.6799944873E-04       4    7    1        -0.3966606859E-02      0.5540906338E-02

    ------------------------------------------------
       NWT REQUIRED           20 OUTER ITERATIONS 
       AND A TOTAL OF         39 INNER ITERATIONS.
    ------------------------------------------------

 NO OUTPUT CONTROL FOR STRESS PERIOD   46   TIME STEP   10
 
 SOLVING FOR HEAD 
                                                   Max.-Head-Change                         Max.-Flux-Residual
  Residual-Control   Outer-Iter.   Inner-Iter.     Column Row Layer    Maximum-Head-Change  Column Row Layer    Maximum-Flux-Residual          L2-NORM 
          0                 1           2             5    8     1       0.4462160623E-01       5    8    1         0.2420065064E+01      0.4281126716E+01
          0                 2           2             5    8     1      -0.6504147809E-02       5    8    1        -0.3650725419E+00      0.5281678892E+00
          0                 3           2             4    6     1      -0.1525375524E-01       5    7    1        -0.8112698033E+00      0.1968626508E+01
          0                 4           2             4    6     1       0.1575490959E-01       4    6    1         0.8605470092E+00      0.1948700685E+01
          0                 5           2             4    6     1      -0.3891055033E-02       4    6    1        -0.2202834054E+00      0.4130877140E+00
          0                 6           2             4    7     1      -0.2603443163E-02       4    7    1        -0.1481006821E+00      0.3382171595E+00
          0                 7           2             4    7     1      -0.7008246790E-03       4    7    1        -0.4046145844E-01      0.6497311750E-01
          0                 8           2             4    7     1      -0.3255208276E-02       4    7    1        -0.1847640960E+00      0.4423114905E+00
          0                 9           2             4    7     1      -0.8049804049E-03       4    7    1        -0.4656020786E-01      0.7228290057E-01
          0                10           2             4    7     1      -0.3077932333E-02       4    7    1        -0.1747323936E+00      0.4163264422E+00
                                                   Max.-Head-Change                         Max.-Flux-Residual
  Residual-Control   Outer-Iter.   Inner-Iter.     Column Row Layer    Maximum-Head-Change  Column Row Layer    Maximum-Flux-Residual          L2-NORM 
          0                11           2             4    7     1      -0.7706552153E-03       4    7    1        -0.4456232897E-01      0.6950332985E-01
          0                12           2             4    7     1      -0.4373490966E-03       4    7    1        -0.2499311568E-01      0.5056396512E-01
          0                13           2             4    7     1      -0.3892808548E-03       4    7    1        -0.2219151147E-01      0.4784890367E-01
          0                14           2             4    7     1      -0.3837267797E-03       4    7    1        -0.2186460410E-01      0.4768605215E-01
          0                15           2             4    7     1      -0.3290003004E-02       4    7    1        -0.1866511343E+00      0.4512334632E+00
          0                16           2             4    7     1      -0.4819949689E-03       4    7    1        -0.2825524983E-01      0.4061009392E-01
          0                17           1             4    7     1      -0.7059378102E-04       4    7    1        -0.4117369768E-02      0.5752616622E-02

    ------------------------------------------------
       NWT REQUIRED           17 OUTER ITERATIONS 
       AND A TOTAL OF         33 INNER ITERATIONS.
    ------------------------------------------------

 NO OUTPUT CONTROL FOR STRESS PERIOD   46   TIME STEP   11
 
 SOLVING FOR HEAD 
                                                   Max.-Head-Change                         Max.-Flux-Residual
  Residual-Control   Outer-Iter.   Inner-Iter.     Column Row Layer    Maximum-Head-Change  Column Row Layer    Maximum-Flux-Residual          L2-NORM 
          0                 1           2             5    8     1       0.4340242635E-01       5    8    1         0.2352049273E+01      0.4151968998E+01
          0                 2           2             5    8     1      -0.5111212240E-02       5    8    1        -0.2883015156E+00      0.4202653539E+00
          0                 3           2             4    7     1      -0.1771177502E-01       4    6    1        -0.9583702740E+00      0.2335074938E+01
          0                 4           2             4    8     1       0.1623128313E-01       4    8    1         0.9079666977E+00      0.2086027972E+01
          0                 5           2             4    7     1       0.1387694255E-02       4    7    1         0.7987713710E-01      0.1469527739E+00
          0                 6           2             4    8     1      -0.1159700961E-02       4    6    1        -0.6766714329E-01      0.1567936945E+00
          0                 7           2             4    7     1      -0.4251483839E-03       4    7    1        -0.2434889282E-01      0.4599749282E-01
          0                 8           2             4    7     1      -0.2258474972E-02       4    7    1        -0.1281672515E+00      0.3078949473E+00
          0                 9           2             4    7     1      -0.6340917182E-03       4    7    1        -0.3649044924E-01      0.6119643799E-01
          0                10           2             4    7     1      -0.4089487421E-03       4    7    1        -0.2333946050E-01      0.4856979076E-01
                                                   Max.-Head-Change                         Max.-Flux-Residual
  Residual-Control   Outer-Iter.   Inner-Iter.     Column Row Layer    Maximum-Head-Change  Column Row Layer    Maximum-Flux-Residual          L2-NORM 
          0                11           2             4    7     1      -0.1931180235E-02       4    7    1        -0.1096012009E+00      0.2626090033E+00
          0                12           2             4    7     1      -0.5897927858E-03       4    7    1        -0.3390003483E-01      0.5849768577E-01
          0                13           2             4    7     1      -0.4103293275E-03       4    7    1        -0.2340649639E-01      0.4929029881E-01
          0                14           2             4    7     1      -0.3212918829E-02       4    7    1        -0.1822747710E+00      0.4405865301E+00
          0                15           2             4    7     1      -0.7993664281E-03       4    7    1        -0.4608543071E-01      0.7404824697E-01
          0                16           2             4    7     1      -0.4477644053E-03       4    7    1        -0.2557818977E-01      0.5193555553E-01
          0                17           2             4    7     1      -0.1259609277E-03       4    7    1        -0.7248330199E-02      0.1218580375E-01
          0                18           1             4    7     1      -0.1844963282E-04       4    7    1        -0.1076045300E-02      0.1509697398E-02

    ------------------------------------------------
       NWT REQUIRED           18 OUTER ITERATIONS 
       AND A TOTAL OF         35 INNER ITERATIONS.
    ------------------------------------------------

 NO OUTPUT CONTROL FOR STRESS PERIOD   46   TIME STEP   12
 
 SOLVING FOR HEAD 
                                                   Max.-Head-Change                         Max.-Flux-Residual
  Residual-Control   Outer-Iter.   Inner-Iter.     Column Row Layer    Maximum-Head-Change  Column Row Layer    Maximum-Flux-Residual          L2-NORM 
          0                 1           2             5    8     1       0.4211781135E-01       5    8    1         0.2280569255E+01      0.4028346439E+01
          0                 2           2             5    8     1      -0.6894610140E-02       5    8    1        -0.3877909066E+00      0.5264346016E+00
          0                 3           2             4    8     1      -0.1439172532E-01       4    8    1        -0.7820120969E+00      0.1871933645E+01
          0                 4           2             4    6     1       0.1485950464E-01       4    6    1         0.8112054725E+00      0.1800814737E+01
          0                 5           2             4    6     1      -0.1245836772E-02       4    6    1        -0.7205509446E-01      0.1418430062E+00
          0                 6           2             5    6     1      -0.2924754088E-03       5    6    1        -0.1713354535E-01      0.3425323505E-01
          0                 7           2             4    7     1      -0.1103688640E-02       4    8    1        -0.6323592989E-01      0.1514680646E+00
          0                 8           2             4    7     1      -0.2421273206E-02       4    7    1        -0.1374702723E+00      0.3236627107E+00
          0                 9           2             4    7     1      -0.6681197419E-03       4    7    1        -0.3826418168E-01      0.7069594078E-01
          0                10           2             4    7     1      -0.2981179400E-02       4    7    1        -0.1691359978E+00      0.4068622590E+00
                                                   Max.-Head-Change                         Max.-Flux-Residual
  Residual-Control   Outer-Iter.   Inner-Iter.     Column Row Layer    Maximum-Head-Change  Column Row Layer    Maximum-Flux-Residual          L2-NORM 
          0                11           2             4    7     1      -0.7514704422E-03       4    7    1        -0.4308220871E-01      0.7804658150E-01
          0                12           2             4    7     1      -0.2936938105E-02       4    7    1        -0.1666340782E+00      0.3998901453E+00
          0                13           2             4    7     1      -0.7477743737E-03       4    7    1        -0.4315891797E-01      0.6898641209E-01
          0                14           2             4    7     1      -0.3179446071E-02       4    7    1        -0.1804680163E+00      0.4311407672E+00
          0                15           2             4    7     1      -0.4658219157E-03       4    7    1        -0.2730533037E-01      0.3920571098E-01
          0                16           1             4    7     1      -0.6822857078E-04       4    7    1        -0.3979501984E-02      0.5558524742E-02

    ------------------------------------------------
       NWT REQUIRED           16 OUTER ITERATIONS 
       AND A TOTAL OF         31 INNER ITERATIONS.
    ------------------------------------------------

 NO OUTPUT CONTROL FOR STRESS PERIOD   46   TIME STEP   13
 
 SOLVING FOR HEAD 
                                                   Max.-Head-Change                         Max.-Flux-Residual
  Residual-Control   Outer-Iter.   Inner-Iter.     Column Row Layer    Maximum-Head-Change  Column Row Layer    Maximum-Flux-Residual          L2-NORM 
          0                 1           2             5    8     1       0.4100161077E-01       5    8    1         0.2218472158E+01      0.3919530128E+01
          0                 2           2             5    8     1      -0.6853858228E-02       5    8    1        -0.3865098420E+00      0.5079161631E+00
          0                 3           2             4    7     1      -0.1435146492E-01       4    8    1        -0.7754161952E+00      0.1870489220E+01
          0                 4           2             4    6     1       0.1487851020E-01       4    6    1         0.8122448452E+00      0.1788061690E+01
          0                 5           2             4    6     1      -0.4263358046E-02       4    6    1        -0.2408671719E+00      0.4251564727E+00
          0                 6           2             4    7     1      -0.5893689078E-03       5    7    1        -0.3388908202E-01      0.6312837449E-01
          0                 7           2             4    7     1      -0.3101370398E-02       4    7    1        -0.1759429264E+00      0.4244657305E+00
          0                 8           2             4    7     1      -0.7759105338E-03       4    7    1        -0.4448865073E-01      0.8047467650E-01
          0                 9           2             4    7     1      -0.2964862844E-02       4    7    1        -0.1682257928E+00      0.4035287376E+00
          0                10           2             4    7     1      -0.7570912753E-03       4    7    1        -0.4339836518E-01      0.7882903305E-01
                                                   Max.-Head-Change                         Max.-Flux-Residual
  Residual-Control   Outer-Iter.   Inner-Iter.     Column Row Layer    Maximum-Head-Change  Column Row Layer    Maximum-Flux-Residual          L2-NORM 
          0                11           2             4    7     1      -0.4375736517E-03       4    7    1        -0.2491588171E-01      0.5322837781E-01
          0                12           2             4    7     1      -0.3930104467E-03       4    7    1        -0.2235106838E-01      0.4984535601E-01
          0                13           2             4    7     1      -0.3878505418E-03       4    7    1        -0.2205217973E-01      0.4955435954E-01
          0                14           2             4    7     1      -0.3225634312E-02       4    7    1        -0.1829568571E+00      0.4435532964E+00
          0                15           2             4    7     1      -0.4795950087E-03       4    7    1        -0.2770474585E-01      0.4821029242E-01
          0                16           1             4    7     1      -0.7125910835E-04       4    7    1        -0.4101635917E-02      0.6955319352E-02

    ------------------------------------------------
       NWT REQUIRED           16 OUTER ITERATIONS 
       AND A TOTAL OF         31 INNER ITERATIONS.
    ------------------------------------------------

 NO OUTPUT CONTROL FOR STRESS PERIOD   46   TIME STEP   14
 
 SOLVING FOR HEAD 
                                                   Max.-Head-Change                         Max.-Flux-Residual
  Residual-Control   Outer-Iter.   Inner-Iter.     Column Row Layer    Maximum-Head-Change  Column Row Layer    Maximum-Flux-Residual          L2-NORM 
          0                 1           2             5    8     1       0.3998384601E-01       5    8    1         0.2161867514E+01      0.3822556068E+01
          0                 2           2             5    8     1      -0.6405545789E-02       5    8    1        -0.3623480190E+00      0.4642203024E+00
          0                 3           2             4    7     1      -0.1511210448E-01       5    7    1        -0.8121633231E+00      0.1972087051E+01
          0                 4           2             4    6     1       0.1525894068E-01       4    6    1         0.8330865163E+00      0.1828477295E+01
          0                 5           2             4    7     1       0.1285869367E-02       4    7    1         0.7302810807E-01      0.1581533951E+00
          0                 6           2             5    6     1      -0.2551252700E-03       5    6    1        -0.1497121974E-01      0.2728919733E-01
          0                 7           2             4    7     1      -0.1139232160E-02       5    7    1        -0.6469276586E-01      0.1567210873E+00
          0                 8           2             4    7     1      -0.4182367263E-03       4    7    1        -0.2389622352E-01      0.4676045360E-01
          0                 9           2             4    7     1      -0.3681221003E-03       4    7    1        -0.2093422427E-01      0.4672456815E-01
          0                10           2             4    7     1      -0.2774821478E-02       4    7    1        -0.1573986865E+00      0.3811884877E+00
                                                   Max.-Head-Change                         Max.-Flux-Residual
  Residual-Control   Outer-Iter.   Inner-Iter.     Column Row Layer    Maximum-Head-Change  Column Row Layer    Maximum-Flux-Residual          L2-NORM 
          0                11           2             4    7     1      -0.7161944092E-03       4    7    1        -0.4105005029E-01      0.7471096503E-01
          0                12           2             4    7     1      -0.4274838465E-03       4    7    1        -0.2433794428E-01      0.5221077419E-01
          0                13           2             4    7     1      -0.2423424099E-02       4    7    1        -0.1374775221E+00      0.3317415507E+00
          0                14           2             4    7     1      -0.6681450082E-03       4    7    1        -0.3826823069E-01      0.7060584624E-01
          0                15           2             4    7     1      -0.4088674488E-03       4    7    1        -0.2327599441E-01      0.5005483699E-01
          0                16           2             4    7     1      -0.3856070191E-03       4    7    1        -0.2192616450E-01      0.4910892103E-01
          0                17           2             4    7     1      -0.3852215533E-03       4    7    1        -0.2190121946E-01      0.4926218013E-01
          0                18           2             4    7     1      -0.3280395334E-02       4    7    1        -0.1860544132E+00      0.4511706346E+00
          0                19           2             4    7     1      -0.4876281384E-03       4    7    1        -0.2816783071E-01      0.4901919520E-01
          0                20           1             4    7     1      -0.7243648251E-04       4    7    1        -0.4169231740E-02      0.7069957342E-02

    ------------------------------------------------
       NWT REQUIRED           20 OUTER ITERATIONS 
       AND A TOTAL OF         39 INNER ITERATIONS.
    ------------------------------------------------

 NO OUTPUT CONTROL FOR STRESS PERIOD   46   TIME STEP   15
 
 SOLVING FOR HEAD 
                                                   Max.-Head-Change                         Max.-Flux-Residual
  Residual-Control   Outer-Iter.   Inner-Iter.     Column Row Layer    Maximum-Head-Change  Column Row Layer    Maximum-Flux-Residual          L2-NORM 
          0                 1           2             5    8     1       0.3900350954E-01       5    8    1         0.2107517438E+01      0.3730662588E+01
          0                 2           2             5    8     1      -0.6974937804E-02       5    8    1        -0.3934764464E+00      0.5261977097E+00
          0                 3           2             4    7     1      -0.1412626214E-01       5    7    1        -0.7591401066E+00      0.1833663885E+01
          0                 4           2             4    6     1       0.1453279655E-01       4    6    1         0.7934252634E+00      0.1746291429E+01
          0                 5           2             4    6     1      -0.4163699493E-02       4    6    1        -0.2352797712E+00      0.4152464115E+00
          0                 6           2             4    7     1      -0.2863097586E-02       5    7    1        -0.1628111922E+00      0.3748341329E+00
          0                 7           2             4    7     1      -0.7492225096E-03       4    7    1        -0.4292648239E-01      0.7856246478E-01
          0                 8           2             4    7     1      -0.2818210339E-02       4    7    1        -0.1599094954E+00      0.3834040962E+00
          0                 9           2             4    7     1      -0.7343282320E-03       4    7    1        -0.4208471161E-01      0.7675992955E-01
          0                10           2             4    7     1      -0.3169702206E-02       4    7    1        -0.1798346909E+00      0.4323794930E+00
                                                   Max.-Head-Change                         Max.-Flux-Residual
  Residual-Control   Outer-Iter.   Inner-Iter.     Column Row Layer    Maximum-Head-Change  Column Row Layer    Maximum-Flux-Residual          L2-NORM 
          0                11           2             4    7     1      -0.3328662199E-02       4    7    1        -0.1892463491E+00      0.4268350223E+00
          0                12           2             4    7     1      -0.4949591580E-03       4    7    1        -0.2857762384E-01      0.4945613478E-01
          0                13           1             4    7     1      -0.7354913925E-04       4    7    1        -0.4234078908E-02      0.7168196296E-02

    ------------------------------------------------
       NWT REQUIRED           13 OUTER ITERATIONS 
       AND A TOTAL OF         25 INNER ITERATIONS.
    ------------------------------------------------

 NO OUTPUT CONTROL FOR STRESS PERIOD   46   TIME STEP   16
 
 SOLVING FOR HEAD 
                                                   Max.-Head-Change                         Max.-Flux-Residual
  Residual-Control   Outer-Iter.   Inner-Iter.     Column Row Layer    Maximum-Head-Change  Column Row Layer    Maximum-Flux-Residual          L2-NORM 
          0                 1           2             5    8     1       0.3815496776E-01       5    8    1         0.2060471828E+01      0.3651026823E+01
          0                 2           2             5    8     1      -0.5814816457E-02       5    8    1        -0.3294322856E+00      0.4195633936E+00
          0                 3           2             4    6     1      -0.1625761326E-01       5    7    1        -0.8705669123E+00      0.2119427034E+01
          0                 4           2             4    6     1       0.1573652192E-01       4    6    1         0.8593307058E+00      0.1877452739E+01
          0                 5           2             4    6     1      -0.1328682975E-02       4    6    1        -0.7686017028E-01      0.1611990346E+00
          0                 6           2             4    6     1      -0.1756501201E-02       5    6    1        -0.1008409504E+00      0.2363892152E+00
          0                 7           2             4    7     1      -0.5541671006E-03       4    7    1        -0.3168602088E-01      0.6093160712E-01
          0                 8           2             4    7     1      -0.3165788520E-02       4    7    1        -0.1795938528E+00      0.4336591769E+00
          0                 9           2             4    7     1      -0.3393049168E-02       4    7    1        -0.1929012266E+00      0.4357678535E+00
          0                10           2             4    7     1      -0.8192720343E-03       4    7    1        -0.4697807219E-01      0.8458641848E-01
                                                   Max.-Head-Change                         Max.-Flux-Residual
  Residual-Control   Outer-Iter.   Inner-Iter.     Column Row Layer    Maximum-Head-Change  Column Row Layer    Maximum-Flux-Residual          L2-NORM 
          0                11           2             4    7     1      -0.4519707529E-03       4    7    1        -0.2574064298E-01      0.5466002048E-01
          0                12           2             4    7     1      -0.3297297377E-02       4    7    1        -0.1870335106E+00      0.4528434172E+00
          0                13           2             4    7     1      -0.4903052780E-03       4    7    1        -0.2832368076E-01      0.4927915229E-01
          0                14           1             4    7     1      -0.7285869154E-04       4    7    1        -0.4193805115E-02      0.7110936528E-02

    ------------------------------------------------
       NWT REQUIRED           14 OUTER ITERATIONS 
       AND A TOTAL OF         27 INNER ITERATIONS.
    ------------------------------------------------

 NO OUTPUT CONTROL FOR STRESS PERIOD   46   TIME STEP   17
 
 SOLVING FOR HEAD 
                                                   Max.-Head-Change                         Max.-Flux-Residual
  Residual-Control   Outer-Iter.   Inner-Iter.     Column Row Layer    Maximum-Head-Change  Column Row Layer    Maximum-Flux-Residual          L2-NORM 
          0                 1           2             5    8     1       0.3729138212E-01       5    8    1         0.2012689660E+01      0.3574104081E+01
          0                 2           2             5    8     1      -0.6280520128E-02       5    8    1        -0.3548774477E+00      0.4671597257E+00
          0                 3           2             4    7     1      -0.1536510848E-01       5    7    1        -0.8253613903E+00      0.2001557085E+01
          0                 4           2             4    6     1       0.1513731209E-01       4    6    1         0.8265514247E+00      0.1809964693E+01
          0                 5           2             4    6     1      -0.1255539571E-02       4    6    1        -0.7267696164E-01      0.1559119416E+00
          0                 6           2             5    6     1      -0.2883476296E-03       5    6    1        -0.1690000004E-01      0.3200884112E-01
          0                 7           2             4    7     1      -0.2293931103E-02       5    7    1        -0.1301698848E+00      0.3166515949E+00
          0                 8           2             4    7     1      -0.6349168787E-03       4    7    1        -0.3636653790E-01      0.6714392110E-01
          0                 9           2             4    7     1      -0.3895259603E-03       4    7    1        -0.2217599601E-01      0.4770553911E-01
          0                10           2             4    7     1      -0.3597654586E-03       4    7    1        -0.2045925910E-01      0.4573799120E-01
                                                   Max.-Head-Change                         Max.-Flux-Residual
  Residual-Control   Outer-Iter.   Inner-Iter.     Column Row Layer    Maximum-Head-Change  Column Row Layer    Maximum-Flux-Residual          L2-NORM 
          0                11           2             4    7     1      -0.3691564318E-03       4    7    1        -0.2098760994E-01      0.4731417463E-01
          0                12           2             4    7     1      -0.1917660078E-02       4    7    1        -0.1087930721E+00      0.2621215744E+00
          0                13           2             4    7     1      -0.5896597556E-03       4    7    1        -0.3373803909E-01      0.6368856105E-01
          0                14           2             4    7     1      -0.4080724884E-03       4    7    1        -0.2322150953E-01      0.5062858631E-01
          0                15           2             4    7     1      -0.3148335850E-02       4    7    1        -0.1785756658E+00      0.4326131555E+00
          0                16           2             4    7     1      -0.7923328575E-03       4    7    1        -0.4542432976E-01      0.8225164096E-01
          0                17           2             4    7     1      -0.4444317687E-03       4    7    1        -0.2530774590E-01      0.5386445071E-01
          0                18           2             4    7     1      -0.3958430511E-03       4    7    1        -0.2251137381E-01      0.5016815930E-01
          0                19           2             4    7     1      -0.1867171381E-03       4    7    1        -0.1064738444E-01      0.2186729804E-01
          0                20           1             4    7     1      -0.2774760524E-04       4    7    1        -0.1600891625E-02      0.2750922050E-02

    ------------------------------------------------
       NWT REQUIRED           20 OUTER ITERATIONS 
       AND A TOTAL OF         39 INNER ITERATIONS.
    ------------------------------------------------

 NO OUTPUT CONTROL FOR STRESS PERIOD   46   TIME STEP   18
 
 SOLVING FOR HEAD 
                                                   Max.-Head-Change                         Max.-Flux-Residual
  Residual-Control   Outer-Iter.   Inner-Iter.     Column Row Layer    Maximum-Head-Change  Column Row Layer    Maximum-Flux-Residual          L2-NORM 
          0                 1           2             5    8     1       0.3644426641E-01       5    8    1         0.1965886083E+01      0.3501654156E+01
          0                 2           2             5    8     1      -0.7549222754E-02       5    8    1        -0.4245270144E+00      0.6128126346E+00
          0                 3           2             4    7     1      -0.1319749017E-01       5    7    1        -0.7090035750E+00      0.1699677236E+01
          0                 4           2             4    6     1       0.1362930422E-01       4    6    1         0.7440556916E+00      0.1640460733E+01
          0                 5           2             4    6     1      -0.3902560923E-02       4    6    1        -0.2205265603E+00      0.3890090662E+00
          0                 6           2             4    7     1      -0.5680545373E-03       5    7    1        -0.3264108833E-01      0.6145082982E-01
          0                 7           2             4    7     1      -0.3227053002E-02       4    7    1        -0.1830685605E+00      0.4421206372E+00
          0                 8           2             4    7     1      -0.3274698886E-02       4    7    1        -0.1862019630E+00      0.4187509131E+00
          0                 9           2             4    7     1      -0.7942965176E-03       4    7    1        -0.4554308797E-01      0.8209080076E-01
          0                10           2             4    7     1      -0.3185043914E-02       4    7    1        -0.1807129596E+00      0.4339040649E+00
                                                   Max.-Head-Change                         Max.-Flux-Residual
  Residual-Control   Outer-Iter.   Inner-Iter.     Column Row Layer    Maximum-Head-Change  Column Row Layer    Maximum-Flux-Residual          L2-NORM 
          0                11           2             4    7     1      -0.4736572865E-03       4    7    1        -0.2736126189E-01      0.4756421173E-01
          0                12           1             4    7     1      -0.7039146328E-04       4    7    1        -0.4051955225E-02      0.6867662516E-02

    ------------------------------------------------
       NWT REQUIRED           12 OUTER ITERATIONS 
       AND A TOTAL OF         23 INNER ITERATIONS.
    ------------------------------------------------

 NO OUTPUT CONTROL FOR STRESS PERIOD   46   TIME STEP   19
 
 SOLVING FOR HEAD 
                                                   Max.-Head-Change                         Max.-Flux-Residual
  Residual-Control   Outer-Iter.   Inner-Iter.     Column Row Layer    Maximum-Head-Change  Column Row Layer    Maximum-Flux-Residual          L2-NORM 
          0                 1           2             5    8     1       0.3570148416E-01       5    8    1         0.1924858051E+01      0.3439025957E+01
          0                 2           2             5    8     1      -0.7512192200E-02       5    8    1        -0.4223255005E+00      0.6164668859E+00
          0                 3           2             4    7     1      -0.1327491833E-01       5    7    1        -0.7130820898E+00      0.1708884726E+01
          0                 4           2             4    6     1       0.1348125398E-01       4    6    1         0.7360082468E+00      0.1620040807E+01
          0                 5           2             4    6     1      -0.1172416959E-02       4    6    1        -0.6776991296E-01      0.1392398929E+00
          0                 6           2             4    6     1      -0.1189476169E-02       5    6    1        -0.6880278132E-01      0.1596000440E+00
          0                 7           2             4    7     1      -0.4482668486E-03       4    7    1        -0.2559429541E-01      0.5105923684E-01
          0                 8           2             4    7     1      -0.2365386761E-02       4    7    1        -0.1341938521E+00      0.3235910291E+00
          0                 9           2             4    7     1      -0.6756312774E-03       4    7    1        -0.3868532286E-01      0.7190731719E-01
          0                10           2             4    7     1      -0.1604367088E-02       4    7    1        -0.9106805645E-01      0.2155977645E+00
                                                   Max.-Head-Change                         Max.-Flux-Residual
  Residual-Control   Outer-Iter.   Inner-Iter.     Column Row Layer    Maximum-Head-Change  Column Row Layer    Maximum-Flux-Residual          L2-NORM 
          0                11           2             4    7     1      -0.5150327698E-03       4    7    1        -0.2945627289E-01      0.5613689143E-01
          0                12           2             4    7     1      -0.3866027572E-03       4    7    1        -0.2199460008E-01      0.4836235421E-01
          0                13           2             4    7     1      -0.3137291004E-02       4    7    1        -0.1779501063E+00      0.4313232758E+00
          0                14           2             4    7     1      -0.7847301839E-03       4    7    1        -0.4499244126E-01      0.8136967655E-01
          0                15           2             4    7     1      -0.4395037614E-03       4    7    1        -0.2502769478E-01      0.5326128719E-01
          0                16           2             4    7     1      -0.3909565942E-03       4    7    1        -0.2223403269E-01      0.4954418944E-01
          0                17           2             4    7     1      -0.3270545372E-02       4    7    1        -0.1854993876E+00      0.4497517922E+00
          0                18           2             4    7     1      -0.4861932207E-03       4    7    1        -0.2808499029E-01      0.4887449681E-01
          0                19           1             4    7     1      -0.7222766634E-04       4    7    1        -0.4157243383E-02      0.7049514437E-02

    ------------------------------------------------
       NWT REQUIRED           19 OUTER ITERATIONS 
       AND A TOTAL OF         37 INNER ITERATIONS.
    ------------------------------------------------

 NO OUTPUT CONTROL FOR STRESS PERIOD   46   TIME STEP   20
 
 SOLVING FOR HEAD 
                                                   Max.-Head-Change                         Max.-Flux-Residual
  Residual-Control   Outer-Iter.   Inner-Iter.     Column Row Layer    Maximum-Head-Change  Column Row Layer    Maximum-Flux-Residual          L2-NORM 
          0                 1           2             5    8     1       0.3503647226E-01       5    8    1         0.1888144012E+01      0.3384460080E+01
          0                 2           2             5    8     1      -0.6620788652E-02       5    8    1        -0.3731128831E+00      0.5214484075E+00
          0                 3           2             4    7     1      -0.1481244184E-01       5    7    1        -0.7954922947E+00      0.1920458955E+01
          0                 4           2             4    6     1       0.1445572425E-01       4    6    1         0.7893341872E+00      0.1728164783E+01
          0                 5           2             4    6     1      -0.4069738915E-02       4    6    1        -0.2299960271E+00      0.4044533432E+00
          0                 6           2             4    7     1      -0.5745306036E-03       5    7    1        -0.3302295094E-01      0.6190310651E-01
          0                 7           2             4    7     1      -0.2059364999E-02       4    7    1        -0.1168550865E+00      0.2798991866E+00
          0                 8           2             4    7     1      -0.6074458512E-03       4    7    1        -0.3477008345E-01      0.6508404642E-01
          0                 9           2             4    7     1      -0.4093858564E-03       4    7    1        -0.2329925371E-01      0.5065946347E-01
          0                10           2             4    7     1      -0.3165393581E-02       4    7    1        -0.1795522323E+00      0.4349919486E+00
                                                   Max.-Head-Change                         Max.-Flux-Residual
  Residual-Control   Outer-Iter.   Inner-Iter.     Column Row Layer    Maximum-Head-Change  Column Row Layer    Maximum-Flux-Residual          L2-NORM 
          0                11           2             4    7     1      -0.7953555727E-03       4    7    1        -0.4560060016E-01      0.8254510446E-01
          0                12           2             4    7     1      -0.4476495964E-03       4    7    1        -0.2549188061E-01      0.5428125321E-01
          0                13           2             4    7     1      -0.3359822949E-02       4    7    1        -0.1905768807E+00      0.4615709670E+00
          0                14           2             4    7     1      -0.4995757940E-03       4    7    1        -0.2885886564E-01      0.5021269394E-01
          0                15           1             4    7     1      -0.7423224179E-04       4    7    1        -0.4272807367E-02      0.7244988888E-02

    ------------------------------------------------
       NWT REQUIRED           15 OUTER ITERATIONS 
       AND A TOTAL OF         29 INNER ITERATIONS.
    ------------------------------------------------

 NO OUTPUT CONTROL FOR STRESS PERIOD   46   TIME STEP   21
 
 SOLVING FOR HEAD 
                                                   Max.-Head-Change                         Max.-Flux-Residual
  Residual-Control   Outer-Iter.   Inner-Iter.     Column Row Layer    Maximum-Head-Change  Column Row Layer    Maximum-Flux-Residual          L2-NORM 
          0                 1           2             5    8     1       0.3439035273E-01       5    8    1         0.1852512911E+01      0.3333679266E+01
          0                 2           2             5    8     1      -0.6171712852E-02       5    8    1        -0.3482486584E+00      0.4787229298E+00
          0                 3           2             4    7     1      -0.1563651467E-01       5    7    1        -0.8396469714E+00      0.2033007448E+01
          0                 4           2             4    6     1       0.1500412576E-01       4    6    1         0.8193336178E+00      0.1789751110E+01
          0                 5           2             4    6     1      -0.3625136356E-02       4    6    1        -0.2052069029E+00      0.3448939306E+00
          0                 6           2             4    7     1      -0.4935924040E-03       5    7    1        -0.2842268307E-01      0.5483000954E-01
          0                 7           2             4    7     1      -0.2498582353E-02       4    7    1        -0.1417510856E+00      0.3417064709E+00
          0                 8           2             4    7     1      -0.6901123274E-03       4    7    1        -0.3952778954E-01      0.7296502433E-01
          0                 9           2             4    7     1      -0.3062227634E-02       4    7    1        -0.1737376591E+00      0.4178961476E+00
          0                10           2             4    7     1      -0.7837391205E-03       4    7    1        -0.4492502619E-01      0.8163573618E-01
                                                   Max.-Head-Change                         Max.-Flux-Residual
  Residual-Control   Outer-Iter.   Inner-Iter.     Column Row Layer    Maximum-Head-Change  Column Row Layer    Maximum-Flux-Residual          L2-NORM 
          0                11           2             4    7     1      -0.4468150542E-03       4    7    1        -0.2544365307E-01      0.5425667417E-01
          0                12           1             4    7     1      -0.8110160495E-04       4    7    1        -0.4666457921E-02      0.8032278004E-02

    ------------------------------------------------
       NWT REQUIRED           12 OUTER ITERATIONS 
       AND A TOTAL OF         23 INNER ITERATIONS.
    ------------------------------------------------

 NO OUTPUT CONTROL FOR STRESS PERIOD   46   TIME STEP   22
 
 SOLVING FOR HEAD 
                                                   Max.-Head-Change                         Max.-Flux-Residual
  Residual-Control   Outer-Iter.   Inner-Iter.     Column Row Layer    Maximum-Head-Change  Column Row Layer    Maximum-Flux-Residual          L2-NORM 
          0                 1           2             5    8     1       0.3368656454E-01       5    8    1         0.1813779680E+01      0.3280624435E+01
          0                 2           2             5    8     1      -0.7985798696E-02       5    8    1        -0.4479494007E+00      0.6974833836E+00
          0                 3           2             4    7     1      -0.1255945454E-01       4    7    1        -0.6747018892E+00      0.1605428887E+01
          0                 4           2             4    6     1       0.1275164448E-01       4    6    1         0.6961473152E+00      0.1534095649E+01
          0                 5           2             4    6     1      -0.1119568993E-02       4    6    1        -0.6469659433E-01      0.1318106831E+00
          0                 6           2             4    6     1      -0.1293146145E-02       5    6    1        -0.7449532939E-01      0.1740744648E+00
          0                 7           2             4    7     1      -0.5054992060E-03       4    7    1        -0.2885675759E-01      0.5785017738E-01
          0                 8           2             4    7     1      -0.3149864160E-02       4    7    1        -0.1786864013E+00      0.4319048601E+00
          0                 9           2             4    7     1      -0.3467552723E-02       4    7    1        -0.1971240747E+00      0.4462433977E+00
          0                10           2             4    7     1      -0.8334739454E-03       4    7    1        -0.4779519153E-01      0.8597466720E-01
                                                   Max.-Head-Change                         Max.-Flux-Residual
  Residual-Control   Outer-Iter.   Inner-Iter.     Column Row Layer    Maximum-Head-Change  Column Row Layer    Maximum-Flux-Residual          L2-NORM 
          0                11           2             4    7     1      -0.4505973544E-03       4    7    1        -0.2566465485E-01      0.5434964390E-01
          0                12           2             4    7     1      -0.3958874969E-03       4    7    1        -0.2251615227E-01      0.5011800138E-01
          0                13           2             4    7     1      -0.3879444539E-03       4    7    1        -0.2205804838E-01      0.4953906247E-01
          0                14           2             4    7     1      -0.3187807077E-02       4    7    1        -0.1808134870E+00      0.4383028545E+00
          0                15           2             4    7     1      -0.4739750573E-03       4    7    1        -0.2737977880E-01      0.4764550511E-01
          0                16           1             4    7     1      -0.7042469059E-04       4    7    1        -0.4053584735E-02      0.6873780408E-02

    ------------------------------------------------
       NWT REQUIRED           16 OUTER ITERATIONS 
       AND A TOTAL OF         31 INNER ITERATIONS.
    ------------------------------------------------

 NO OUTPUT CONTROL FOR STRESS PERIOD   46   TIME STEP   23
 
 SOLVING FOR HEAD 
                                                   Max.-Head-Change                         Max.-Flux-Residual
  Residual-Control   Outer-Iter.   Inner-Iter.     Column Row Layer    Maximum-Head-Change  Column Row Layer    Maximum-Flux-Residual          L2-NORM 
          0                 1           2             5    8     1       0.3311252891E-01       5    8    1         0.1782185788E+01      0.3238595186E+01
          0                 2           2             5    8     1      -0.7588105642E-02       5    8    1        -0.4259314033E+00      0.6561262312E+00
          0                 3           2             4    7     1      -0.1322679264E-01       4    7    1        -0.7103662335E+00      0.1699744449E+01
          0                 4           2             4    6     1       0.1241215295E-01       4    6    1         0.6960713717E+00      0.1564879131E+01
          0                 5           2             4    7     1       0.9804287679E-03       4    7    1         0.5557136167E-01      0.1249407418E+00
          0                 6           2             4    6     1      -0.2737946335E-02       4    6    1        -0.1575192707E+00      0.3785093840E+00
          0                 7           2             4    7     1      -0.7101173921E-03       4    7    1        -0.4062994626E-01      0.7524405553E-01
          0                 8           2             4    7     1      -0.1648615084E-02       4    7    1        -0.9357847835E-01      0.2215480151E+00
          0                 9           2             4    7     1      -0.5540325542E-03       4    7    1        -0.3163968916E-01      0.6153341501E-01
          0                10           2             4    7     1      -0.3150239443E-02       4    7    1        -0.1787046712E+00      0.4316274144E+00
                                                   Max.-Head-Change                         Max.-Flux-Residual
  Residual-Control   Outer-Iter.   Inner-Iter.     Column Row Layer    Maximum-Head-Change  Column Row Layer    Maximum-Flux-Residual          L2-NORM 
          0                11           2             4    7     1      -0.7848161147E-03       4    7    1        -0.4492931325E-01      0.8208556505E-01
          0                12           2             4    7     1      -0.4378110486E-03       4    7    1        -0.2492880237E-01      0.5311554231E-01
          0                13           2             4    7     1      -0.3900296655E-03       4    7    1        -0.2217465870E-01      0.4961579935E-01
          0                14           2             4    7     1      -0.3292974960E-02       4    7    1        -0.1867698300E+00      0.4530913477E+00
          0                15           2             4    7     1      -0.4896121227E-03       4    7    1        -0.2820856070E-01      0.4863703457E-01
          0                16           1             4    7     1      -0.7274813969E-04       4    7    1        -0.4189023749E-02      0.7100890650E-02

    ------------------------------------------------
       NWT REQUIRED           16 OUTER ITERATIONS 
       AND A TOTAL OF         31 INNER ITERATIONS.
    ------------------------------------------------

 NO OUTPUT CONTROL FOR STRESS PERIOD   46   TIME STEP   24
 
 SOLVING FOR HEAD 
                                                   Max.-Head-Change                         Max.-Flux-Residual
  Residual-Control   Outer-Iter.   Inner-Iter.     Column Row Layer    Maximum-Head-Change  Column Row Layer    Maximum-Flux-Residual          L2-NORM 
          0                 1           2             5    8     1       0.3257334272E-01       5    8    1         0.1752535924E+01      0.3200652104E+01
          0                 2           2             5    8     1      -0.7065240819E-02       5    8    1        -0.3970304032E+00      0.5998081377E+00
          0                 3           2             4    7     1      -0.1412880059E-01       4    7    1        -0.7587184129E+00      0.1823365283E+01
          0                 4           2             4    6     1       0.1300196210E-01       4    6    1         0.7291876491E+00      0.1636169543E+01
          0                 5           2             4    6     1      -0.3183320310E-02       4    6    1        -0.1845587582E+00      0.3472920547E+00
          0                 6           2             4    7     1      -0.4881186034E-03       5    7    1        -0.2809320564E-01      0.5376981819E-01
          0                 7           2             4    7     1      -0.3695626351E-03       4    7    1        -0.2102009363E-01      0.4641651123E-01
          0                 8           2             4    7     1      -0.3806555236E-03       4    7    1        -0.2163486507E-01      0.4898798892E-01
          0                 9           2             4    7     1      -0.3099486316E-02       4    7    1        -0.1758061486E+00      0.4263375955E+00
          0                10           2             4    7     1      -0.7714068811E-03       4    7    1        -0.4416248517E-01      0.8066765553E-01
                                                   Max.-Head-Change                         Max.-Flux-Residual
  Residual-Control   Outer-Iter.   Inner-Iter.     Column Row Layer    Maximum-Head-Change  Column Row Layer    Maximum-Flux-Residual          L2-NORM 
          0                11           2             4    7     1      -0.4350919359E-03       4    7    1        -0.2477305506E-01      0.5286305722E-01
          0                12           2             4    7     1      -0.3168631107E-02       4    7    1        -0.1797289584E+00      0.4353655380E+00
          0                13           2             4    7     1      -0.4711749588E-03       4    7    1        -0.2714678723E-01      0.4680069447E-01
          0                14           1             4    7     1      -0.7001625810E-04       4    7    1        -0.4031803792E-02      0.6833831284E-02

    ------------------------------------------------
       NWT REQUIRED           14 OUTER ITERATIONS 
       AND A TOTAL OF         27 INNER ITERATIONS.
    ------------------------------------------------

 NO OUTPUT CONTROL FOR STRESS PERIOD   46   TIME STEP   25
 
 SOLVING FOR HEAD 
                                                   Max.-Head-Change                         Max.-Flux-Residual
  Residual-Control   Outer-Iter.   Inner-Iter.     Column Row Layer    Maximum-Head-Change  Column Row Layer    Maximum-Flux-Residual          L2-NORM 
          0                 1           2             5    8     1       0.3200733914E-01       5    8    1         0.1721453844E+01      0.3161808196E+01
          0                 2           2             5    8     1      -0.7878102061E-02       5    8    1        -0.4416504793E+00      0.7061968576E+00
          0                 3           2             4    7     1      -0.1279785600E-01       4    7    1        -0.6874166681E+00      0.1638282626E+01
          0                 4           2             4    6     1       0.1206238206E-01       4    6    1         0.6764410536E+00      0.1521810462E+01
          0                 5           2             4    7     1       0.9974244652E-03       4    7    1         0.5646869128E-01      0.1221915006E+00
          0                 6           2             4    6     1      -0.1782748124E-02       4    6    1        -0.1025980017E+00      0.2438205625E+00
          0                 7           2             4    7     1      -0.5014430064E-03       4    7    1        -0.2866501422E-01      0.5425455509E-01
          0                 8           2             4    7     1      -0.3908327287E-03       4    7    1        -0.2222848975E-01      0.4921438660E-01
          0                 9           2             4    7     1      -0.3833934026E-03       4    7    1        -0.2179292293E-01      0.4914880231E-01
          0                10           2             4    7     1      -0.1511928184E-02       4    7    1        -0.8578409147E-01      0.2058233539E+00
                                                   Max.-Head-Change                         Max.-Flux-Residual
  Residual-Control   Outer-Iter.   Inner-Iter.     Column Row Layer    Maximum-Head-Change  Column Row Layer    Maximum-Flux-Residual          L2-NORM 
          0                11           2             4    7     1      -0.5416315464E-03       4    7    1        -0.3091739452E-01      0.6087769581E-01
          0                12           2             4    7     1      -0.3138577160E-02       4    7    1        -0.1780384000E+00      0.4301216704E+00
          0                13           2             4    7     1      -0.7897867948E-03       4    7    1        -0.4520866585E-01      0.8276790232E-01
          0                14           2             4    7     1      -0.3287405966E-02       4    7    1        -0.1865059020E+00      0.4482587772E+00
          0                15           2             4    7     1      -0.4887742327E-03       4    7    1        -0.2816019217E-01      0.4852537887E-01
          0                16           1             4    7     1      -0.7262227626E-04       4    7    1        -0.4181839329E-02      0.7085707269E-02

    ------------------------------------------------
       NWT REQUIRED           16 OUTER ITERATIONS 
       AND A TOTAL OF         31 INNER ITERATIONS.
    ------------------------------------------------

 NO OUTPUT CONTROL FOR STRESS PERIOD   46   TIME STEP   26
 
 SOLVING FOR HEAD 
                                                   Max.-Head-Change                         Max.-Flux-Residual
  Residual-Control   Outer-Iter.   Inner-Iter.     Column Row Layer    Maximum-Head-Change  Column Row Layer    Maximum-Flux-Residual          L2-NORM 
          0                 1           2             5    8     1       0.3150092588E-01       5    8    1         0.1693658872E+01      0.3128460343E+01
          0                 2           2             5    8     1      -0.7964961630E-02       5    8    1        -0.4463180195E+00      0.7239119645E+00
          0                 3           2             4    7     1      -0.1268154234E-01       4    7    1        -0.6811999980E+00      0.1621201145E+01
          0                 4           2             4    6     1       0.1200533147E-01       4    6    1         0.6732313995E+00      0.1515331879E+01
          0                 5           2             4    6     1      -0.3391878879E-02       4    6    1        -0.1964416010E+00      0.3801469683E+00
          0                 6           2             4    7     1      -0.5577378637E-03       5    7    1        -0.3203177036E-01      0.6065026086E-01
          0                 7           2             4    7     1      -0.3981827845E-03       4    7    1        -0.2265223642E-01      0.4971897161E-01
          0                 8           2             4    7     1      -0.2147928413E-02       4    7    1        -0.1218521031E+00      0.2940093221E+00
          0                 9           2             4    7     1      -0.6395237147E-03       4    7    1        -0.3655530015E-01      0.6933408419E-01
          0                10           2             4    7     1      -0.3190480262E-02       4    7    1        -0.1809977386E+00      0.4363409676E+00
                                                   Max.-Head-Change                         Max.-Flux-Residual
  Residual-Control   Outer-Iter.   Inner-Iter.     Column Row Layer    Maximum-Head-Change  Column Row Layer    Maximum-Flux-Residual          L2-NORM 
          0                11           2             4    7     1      -0.8030120309E-03       4    7    1        -0.4596647400E-01      0.8416002635E-01
          0                12           2             4    7     1      -0.3368249402E-02       4    7    1        -0.1910954225E+00      0.4593549461E+00
          0                13           2             4    7     1      -0.5008503222E-03       4    7    1        -0.2885642941E-01      0.4972490888E-01
          0                14           1             4    7     1      -0.7442490950E-04       4    7    1        -0.4285720499E-02      0.7261768033E-02

    ------------------------------------------------
       NWT REQUIRED           14 OUTER ITERATIONS 
       AND A TOTAL OF         27 INNER ITERATIONS.
    ------------------------------------------------

 NO OUTPUT CONTROL FOR STRESS PERIOD   46   TIME STEP   27
 
 SOLVING FOR HEAD 
                                                   Max.-Head-Change                         Max.-Flux-Residual
  Residual-Control   Outer-Iter.   Inner-Iter.     Column Row Layer    Maximum-Head-Change  Column Row Layer    Maximum-Flux-Residual          L2-NORM 
          0                 1           2             5    8     1       0.3105565789E-01       5    8    1         0.1669235339E+01      0.3100777604E+01
          0                 2           2             5    8     1      -0.7193601593E-02       5    8    1        -0.4037595270E+00      0.6345863709E+00
          0                 3           2             4    7     1      -0.1398629317E-01       4    7    1        -0.7511291486E+00      0.1800722941E+01
          0                 4           2             4    6     1       0.1276441420E-01       4    6    1         0.7158728428E+00      0.1605541776E+01
          0                 5           2             4    6     1      -0.2951572674E-02       4    6    1        -0.1712036102E+00      0.3184627352E+00
          0                 6           2             4    7     1      -0.4554862120E-03       5    7    1        -0.2622683402E-01      0.5088133236E-01
          0                 7           2             4    7     1      -0.3688814440E-03       4    7    1        -0.2097726197E-01      0.4662148279E-01
          0                 8           2             4    7     1      -0.2835221415E-02       4    7    1        -0.1608212145E+00      0.3897780350E+00
          0                 9           2             4    7     1      -0.7474734921E-03       4    7    1        -0.4276988175E-01      0.7906865570E-01
          0                10           2             4    7     1      -0.4414841090E-03       4    7    1        -0.2513277584E-01      0.5393822694E-01
                                                   Max.-Head-Change                         Max.-Flux-Residual
  Residual-Control   Outer-Iter.   Inner-Iter.     Column Row Layer    Maximum-Head-Change  Column Row Layer    Maximum-Flux-Residual          L2-NORM 
          0                11           2             4    7     1      -0.3167211818E-02       4    7    1        -0.1796513338E+00      0.4351011893E+00
          0                12           2             4    7     1      -0.4709914436E-03       4    7    1        -0.2713638747E-01      0.4678245459E-01
          0                13           1             4    7     1      -0.6999307599E-04       4    7    1        -0.4030501433E-02      0.6831627084E-02

    ------------------------------------------------
       NWT REQUIRED           13 OUTER ITERATIONS 
       AND A TOTAL OF         25 INNER ITERATIONS.
    ------------------------------------------------

 NO OUTPUT CONTROL FOR STRESS PERIOD   46   TIME STEP   28
 
 SOLVING FOR HEAD 
                                                   Max.-Head-Change                         Max.-Flux-Residual
  Residual-Control   Outer-Iter.   Inner-Iter.     Column Row Layer    Maximum-Head-Change  Column Row Layer    Maximum-Flux-Residual          L2-NORM 
          0                 1           2             5    8     1       0.3055500408E-01       5    8    1         0.1641807194E+01      0.3069201442E+01
          0                 2           2             5    8     1      -0.8289443779E-02       5    8    1        -0.4639695847E+00      0.7780540307E+00
          0                 3           2             4    7     1      -0.1221209198E-01       4    7    1        -0.6560750049E+00      0.1554358911E+01
          0                 4           2             4    6     1       0.1148892562E-01       4    6    1         0.6442745452E+00      0.1449918973E+01
          0                 5           2             4    7     1       0.9318388039E-03       4    7    1         0.5278224733E-01      0.1161373745E+00
          0                 6           2             4    6     1      -0.2232368122E-02       4    6    1        -0.1284443023E+00      0.3076255789E+00
          0                 7           2             4    7     1      -0.5833879634E-03       4    7    1        -0.3337469410E-01      0.6199446676E-01
          0                 8           2             4    7     1      -0.3522466752E-03       4    7    1        -0.2005117696E-01      0.4315608367E-01
          0                 9           2             4    7     1      -0.3264680863E-03       4    7    1        -0.1855975141E-01      0.4166924772E-01
          0                10           2             4    7     1      -0.3379827014E-03       4    7    1        -0.1920907315E-01      0.4350295449E-01
                                                   Max.-Head-Change                         Max.-Flux-Residual
  Residual-Control   Outer-Iter.   Inner-Iter.     Column Row Layer    Maximum-Head-Change  Column Row Layer    Maximum-Flux-Residual          L2-NORM 
          0                11           2             4    7     1      -0.3650010130E-03       4    7    1        -0.2074246162E-01      0.4712424132E-01
          0                12           2             4    7     1      -0.2953839444E-02       4    7    1        -0.1675405579E+00      0.4062665884E+00
          0                13           2             4    7     1      -0.7687362267E-03       4    7    1        -0.4398996168E-01      0.8110280733E-01
          0                14           2             4    7     1      -0.3390553412E-02       4    7    1        -0.1923520298E+00      0.4627921706E+00
          0                15           2             4    7     1      -0.5041124438E-03       4    7    1        -0.2904383572E-01      0.5005143020E-01
          0                16           1             4    7     1      -0.7490153258E-04       4    7    1        -0.4313071948E-02      0.7308411199E-02

    ------------------------------------------------
       NWT REQUIRED           16 OUTER ITERATIONS 
       AND A TOTAL OF         31 INNER ITERATIONS.
    ------------------------------------------------

 NO OUTPUT CONTROL FOR STRESS PERIOD   46   TIME STEP   29
 
 SOLVING FOR HEAD 
                                                   Max.-Head-Change                         Max.-Flux-Residual
  Residual-Control   Outer-Iter.   Inner-Iter.     Column Row Layer    Maximum-Head-Change  Column Row Layer    Maximum-Flux-Residual          L2-NORM 
          0                 1           2             5    8     1       0.3011107741E-01       5    8    1         0.1617503016E+01      0.3042600510E+01
          0                 2           2             5    8     1      -0.8599890165E-02       5    8    1        -0.4809601625E+00      0.8240193773E+00
          0                 3           2             4    7     1      -0.1175180407E-01       4    7    1        -0.6314263205E+00      0.1489704286E+01
          0                 4           2             4    6     1       0.1111596705E-01       4    6    1         0.6233455901E+00      0.1403886171E+01
          0                 5           2             4    7     1       0.8958516943E-03       4    7    1         0.5075396299E-01      0.1124112398E+00
          0                 6           2             4    6     1      -0.2117275122E-02       4    6    1        -0.1218230558E+00      0.2916900501E+00
          0                 7           2             4    7     1      -0.5966135600E-03       4    7    1        -0.3410936711E-01      0.6437287592E-01
          0                 8           2             4    7     1      -0.3887145217E-03       4    7    1        -0.2212100404E-01      0.4803624270E-01
          0                 9           2             4    7     1      -0.3734984872E-03       4    7    1        -0.2123152198E-01      0.4780974825E-01
          0                10           2             4    7     1      -0.1986839572E-02       4    7    1        -0.1127122771E+00      0.2718837483E+00
                                                   Max.-Head-Change                         Max.-Flux-Residual
  Residual-Control   Outer-Iter.   Inner-Iter.     Column Row Layer    Maximum-Head-Change  Column Row Layer    Maximum-Flux-Residual          L2-NORM 
          0                11           2             4    7     1      -0.5828279198E-03       4    7    1        -0.3331786576E-01      0.6299809739E-01
          0                12           2             4    7     1      -0.3861740229E-03       4    7    1        -0.2197449707E-01      0.4780246703E-01
          0                13           2             4    7     1      -0.3827844402E-03       4    7    1        -0.2175690753E-01      0.4911621306E-01
          0                14           2             4    7     1      -0.3859855490E-03       4    7    1        -0.2193778147E-01      0.4957751398E-01
          0                15           2             4    7     1      -0.3167951626E-02       4    7    1        -0.1796788843E+00      0.4357648929E+00
          0                16           2             4    7     1      -0.7973377548E-03       4    7    1        -0.4563944313E-01      0.8355817503E-01
          0                17           2             4    7     1      -0.4479076923E-03       4    7    1        -0.2550170298E-01      0.5438652631E-01
          0                18           2             4    7     1      -0.2905941899E-03       4    7    1        -0.1653700233E-01      0.3579908110E-01
          0                19           1             4    7     1      -0.4318909761E-04       4    7    1        -0.2487945944E-02      0.4266817373E-02

    ------------------------------------------------
       NWT REQUIRED           19 OUTER ITERATIONS 
       AND A TOTAL OF         37 INNER ITERATIONS.
    ------------------------------------------------

 NO OUTPUT CONTROL FOR STRESS PERIOD   46   TIME STEP   30



 STREAM LISTING     PERIOD     46   STEP       30

 LAYER ROW COL. STREAM  RCH.  FLOW INTO     FLOW TO   FLOW OUT OF   OVRLND.     DIRECT     STREAM       STREAM     STREAM     STREAM   STREAMBED  STREAMBED
                SEG.NO.  NO.  STRM. RCH.    AQUIFER    STRM. RCH.    RUNOFF     PRECIP       ET          HEAD       DEPTH      WIDTH   CONDCTNC.   GRADIENT

   1    1    1     1     1    9.3747E+00  1.4265E-01   9.2321E+00  0.000E+00  0.000E+00  0.000E+00  1.09393E+03  8.788E-01  8.172E+00  3.678E-02  1.293E+00
   1    2    2     1     2    9.2321E+00  2.1921E-01   9.0129E+00  0.000E+00  0.000E+00  0.000E+00  1.08893E+03  8.731E-01  8.085E+00  5.660E-02  1.291E+00
   1    3    3     1     3    9.0129E+00  1.8531E-01   8.8275E+00  0.000E+00  0.000E+00  0.000E+00  1.08329E+03  8.667E-01  7.987E+00  4.792E-02  1.289E+00
   1    3    4     1     4    8.8275E+00  1.6930E-01   8.6583E+00  0.000E+00  0.000E+00  0.000E+00  1.07827E+03  8.609E-01  7.901E+00  4.385E-02  1.287E+00
   1    4    5     2     1    6.6583E+00  2.7605E-01   6.3822E+00  0.000E+00  0.000E+00  0.000E+00  1.07247E+03  5.391E-01  1.200E+01  7.800E-02  1.180E+00
   1    5    6     2     2    6.3822E+00  2.1162E-01   6.1706E+00  0.000E+00  0.000E+00  0.000E+00  1.06704E+03  5.270E-01  1.200E+01  6.000E-02  1.176E+00
   1    6    6     2     3    6.1706E+00  2.1097E-01   5.9596E+00  0.000E+00  0.000E+00  0.000E+00  1.06231E+03  5.162E-01  1.200E+01  6.000E-02  1.172E+00
   1    7    6     2     4    5.9596E+00  2.1032E-01   5.7493E+00  0.000E+00  0.000E+00  0.000E+00  1.05758E+03  5.054E-01  1.200E+01  6.000E-02  1.168E+00
   1    8    6     2     5    5.7493E+00  2.0967E-01   5.5396E+00  0.000E+00  0.000E+00  0.000E+00  1.05285E+03  4.944E-01  1.200E+01  6.000E-02  1.165E+00
   1    3    5     3     1    2.0000E+00  2.8252E-01   1.7175E+00  0.000E+00  0.000E+00  0.000E+00  1.07555E+03  1.909E+00  9.636E+00  7.227E-02  1.955E+00
   1    3    6     3     2    1.7175E+00  2.4905E-01   1.4684E+00  0.000E+00  0.000E+00  0.000E+00  1.07264E+03  1.727E+00  8.909E+00  6.682E-02  1.864E+00
   1    3    7     3     3    1.4684E+00  1.9718E-01   1.2712E+00  0.000E+00  0.000E+00  0.000E+00  1.06987E+03  1.555E+00  8.218E+00  5.547E-02  1.777E+00
   1    4    8     3     4    1.2712E+00  2.2567E-01   1.0456E+00  0.000E+00  0.000E+00  0.000E+00  1.06682E+03  1.364E+00  7.455E+00  6.709E-02  1.682E+00
   1    5    8     3     5    1.0456E+00  1.5790E-01   8.8768E-01  0.000E+00  0.000E+00  0.000E+00  1.06362E+03  1.164E+00  6.655E+00  4.991E-02  1.582E+00
   1    6    8     3     6    8.8768E-01  5.5980E-02   8.3170E-01  0.000E+00  0.000E+00  0.000E+00  1.06158E+03  1.036E+00  6.145E+00  1.844E-02  1.518E+00
   1    5   10     4     1    1.0000E+01  9.0919E-02   9.9091E+00  0.000E+00  0.000E+00  0.000E+00  1.07836E+03  6.368E-01  1.000E+01  2.500E-02  1.212E+00
   1    5    9     4     2    9.9091E+00  1.8158E-01   9.7275E+00  0.000E+00  0.000E+00  0.000E+00  1.07154E+03  6.315E-01  1.000E+01  5.000E-02  1.211E+00
   1    6    8     4     3    9.7275E+00  1.2689E-01   9.6006E+00  0.000E+00  0.000E+00  0.000E+00  1.06381E+03  6.256E-01  1.000E+01  3.500E-02  1.209E+00
   1    6    8     5     1    1.0432E+01  2.2686E-01   1.0205E+01  0.000E+00  0.000E+00  0.000E+00  1.05868E+03  6.790E-01  1.542E+01  6.166E-02  1.226E+00
   1    7    7     5     2    1.0205E+01  2.7894E-01   9.9265E+00  0.000E+00  0.000E+00  0.000E+00  1.05417E+03  6.732E-01  1.519E+01  7.594E-02  1.224E+00
   1    8    7     5     3    9.9265E+00  1.9221E-01   9.7343E+00  0.000E+00  0.000E+00  0.000E+00  1.04992E+03  6.676E-01  1.497E+01  5.241E-02  1.223E+00
   1    8    6     5     4    9.7343E+00  1.3577E-01   9.5985E+00  0.000E+00  0.000E+00  0.000E+00  1.04691E+03  6.637E-01  1.482E+01  3.706E-02  1.221E+00
   1    9    6     6     1    9.5985E+00  2.2097E-01   9.3776E+00  0.000E+00  0.000E+00  0.000E+00  1.04341E+03  6.828E-01  1.200E+01  6.000E-02  1.228E+00
   1   10    7     6     2    9.3776E+00  2.2039E-01   9.1572E+00  0.000E+00  0.000E+00  0.000E+00  1.03885E+03  6.732E-01  1.200E+01  6.000E-02  1.224E+00
   1   11    7     6     3    9.1572E+00  2.1981E-01   8.9374E+00  0.000E+00  0.000E+00  0.000E+00  1.03430E+03  6.636E-01  1.200E+01  6.000E-02  1.221E+00
   1   12    7     6     4    8.9374E+00  2.1923E-01   8.7181E+00  0.000E+00  0.000E+00  0.000E+00  1.02974E+03  6.539E-01  1.200E+01  6.000E-02  1.218E+00
   1   13    7     6     5    8.7181E+00  3.4557E-03   8.7147E+00  0.000E+00  0.000E+00  0.000E+00  1.02656E+03  6.489E-01  1.200E+01  2.400E-02  4.800E-02
   1   14    9     7     1    1.5000E+02  1.4082E+00   1.4859E+02  0.000E+00  0.000E+00  0.000E+00  1.03987E+03  2.288E+00  5.529E+01  5.593E-01  8.392E-01
   1   13    8     7     2    1.4859E+02  2.0538E+00   1.4654E+02  0.000E+00  0.000E+00  0.000E+00  1.03478E+03  2.278E+00  5.525E+01  6.147E-01  1.114E+00
   1   13    7     7     3    1.4654E+02  1.8276E+00   1.4471E+02  0.000E+00  0.000E+00  0.000E+00  1.02969E+03  2.268E+00  5.521E+01  5.583E-01  1.091E+00
   1   13    6     8     1    1.5343E+02  1.1711E+00   1.5225E+02  0.000E+00  0.000E+00  0.000E+00  1.02471E+03  2.837E+00  4.113E+01  4.192E-01  9.313E-01
   1   13    5     8     2    1.5225E+02  4.1661E-01   1.5184E+02  0.000E+00  0.000E+00  0.000E+00  1.01846E+03  2.831E+00  4.105E+01  4.183E-01  3.320E-01
   1   13    4     8     3    1.5184E+02 -1.5964E+00   1.5343E+02  0.000E+00  0.000E+00  0.000E+00  1.01221E+03  2.835E+00  4.111E+01  4.189E+00 -1.270E-01
   1   13    3     8     4    1.5343E+02 -3.2212E+00   1.5666E+02  0.000E+00  0.000E+00  0.000E+00  1.00598E+03  2.852E+00  4.135E+01  4.214E+00 -2.548E-01
   1   13    2     8     5    1.5666E+02 -2.4700E+00   1.5913E+02  0.000E+00  0.000E+00  0.000E+00  9.99747E+02  2.872E+00  4.164E+01  4.243E+00 -1.940E-01
   1   13    1     8     6    1.5913E+02 -1.9522E+00   1.6108E+02  0.000E+00  0.000E+00  0.000E+00  9.94762E+02  2.887E+00  4.185E+01  2.559E+00 -2.543E-01
   1    8    6     9     1    5.5396E+00  0.0000E+00   5.5396E+00  0.000E+00  0.000E+00  0.000E+00  1.08034E+03  1.590E+00  4.000E+00  0.000E+00  1.530E+00
   1    8    5     9     2    5.5396E+00  0.0000E+00   5.5396E+00  0.000E+00  0.000E+00  0.000E+00  1.07984E+03  1.590E+00  4.000E+00  0.000E+00  1.530E+00





UNSATURATED ZONE PACKAGE VOLUMETRIC BUDGET FOR  TIME STEP    30 STRESS PERIOD   46
  ------------------------------------------------------------------------------



     CUMULATIVE VOLUMES      L**3       RATES FOR THIS TIME STEP      L**3/T
     ------------------                 ------------------------

           IN:                                      IN:
           ---                                      ---
        INFILTRATION =  2181889190.9773          INFILTRATION =          12.0254

          OUT:                                     OUT:
          ----                                     ----
              UZF ET =  1697858158.5469                UZF ET =          12.0774
        UZF RECHARGE =   224812703.3495          UZF RECHARGE =           0.2012

            IN - OUT =   259218329.0809              IN - OUT =          -0.2532

          STORAGE:                                 STORAGE:
          --------                                 --------
      STORAGE CHANGE =   259218576.6689        STORAGE CHANGE =          -0.2532

 PERCENT DISCREPANCY IS DIFFERENCE BETWEEN IN-OUT MINUS CHANGE IN STORAGE
 DIVIDED BY THE AVERAGE OF IN AND OUT TIMES 100

 PERCENT DISCREPANCY =          -0.00     PERCENT DISCREPANCY =           0.00






1
  VOLUMETRIC BUDGET FOR AGRICULTURAL FIELDS AT  END OF TIME STEP   30, STRESS PERIOD  46
  ------------------------------------------------------------------------------

     CUMULATIVE VOLUMES      L**3       RATES FOR THIS TIME STEP      L**3/T
     ------------------                 ------------------------

           IN:                                      IN:
           ---                                      ---
               AG WELLS  =  1347940992.0000                 AG WELLS  =           5.6382
      DIVERSION SEGMENTS =   733676544.0000        DIVERSION SEGMENTS =           5.5396
       IRRIGATION PONDS  =           0.0000         IRRIGATION PONDS  =           0.0000
           GW IRRIGATION =           0.0000             GW IRRIGATION =           0.0000
           SW IRRIGATION =           0.0000             SW IRRIGATION =           0.0000
        SYSTEM LOSSES GW =           0.0000          SYSTEM LOSSES GW =           0.0000
        SYSTEM LOSSES SW =           0.0000          SYSTEM LOSSES SW =           0.0000

                TOTAL IN =  2081617536.0000                  TOTAL IN =          11.1778

          OUT:                                     OUT:
          ----                                     ----
               AG WELLS  =           0.0000                 AG WELLS  =           0.0000
      DIVERSION SEGMENTS =           0.0000        DIVERSION SEGMENTS =           0.0000
       IRRIGATION PONDS  =           0.0000         IRRIGATION PONDS  =           0.0000
           GW IRRIGATION =  1347940992.0000             GW IRRIGATION =           5.6382
           SW IRRIGATION =   733689536.0000             SW IRRIGATION =           5.5397
        SYSTEM LOSSES GW =           0.0000          SYSTEM LOSSES GW =           0.0000
        SYSTEM LOSSES SW =           0.0000          SYSTEM LOSSES SW =           0.0000

               TOTAL OUT =  2081630464.0000                 TOTAL OUT =          11.1779

                IN - OUT =      -12928.0000                  IN - OUT =      -1.1063E-04

     PERCENT DISCREPANCY =          -0.00         PERCENT DISCREPANCY =          -0.00



1
  VOLUMETRIC BUDGET FOR ENTIRE MODEL AT END OF TIME STEP   30, STRESS PERIOD  46
  ------------------------------------------------------------------------------

     CUMULATIVE VOLUMES      L**3       RATES FOR THIS TIME STEP      L**3/T
     ------------------                 ------------------------

           IN:                                      IN:
           ---                                      ---
             STORAGE     =  1917040512.0000               STORAGE     =           6.1026
       CONSTANT HEAD     =           0.0000         CONSTANT HEAD     =           0.0000
     HEAD DEP BOUNDS     =    34216480.0000       HEAD DEP BOUNDS     =           0.2907
      STREAM LEAKAGE     =  1427505152.0000        STREAM LEAKAGE     =          11.9977
        UZF RECHARGE     =   224812752.0000          UZF RECHARGE     =           0.2012
               GW ET     =           0.0000                 GW ET     =           0.0000
     SURFACE LEAKAGE     =           0.0000       SURFACE LEAKAGE     =           0.0000
           AG WELLS      =           0.0000             AG WELLS      =           0.0000

                TOTAL IN =  3603575040.0000                  TOTAL IN =          18.5922

          OUT:                                     OUT:
          ----                                     ----
             STORAGE     =  1066260608.0000               STORAGE     =           3.4294
       CONSTANT HEAD     =           0.0000         CONSTANT HEAD     =           0.0000
     HEAD DEP BOUNDS     =    34074360.0000       HEAD DEP BOUNDS     =           0.2859
      STREAM LEAKAGE     =  1155275520.0000        STREAM LEAKAGE     =           9.2398
        UZF RECHARGE     =           0.0000          UZF RECHARGE     =           0.0000
               GW ET     =           0.0000                 GW ET     =           0.0000
     SURFACE LEAKAGE     =           0.0000       SURFACE LEAKAGE     =           0.0000
           AG WELLS      =  1347940992.0000             AG WELLS      =           5.6382

               TOTAL OUT =  3603551232.0000                 TOTAL OUT =          18.5932

                IN - OUT =       23808.0000                  IN - OUT =      -1.0738E-03

     PERCENT DISCREPANCY =           0.00         PERCENT DISCREPANCY =          -0.01






         TIME SUMMARY AT END OF TIME STEP   30 IN STRESS PERIOD   46
                    SECONDS     MINUTES      HOURS       DAYS        YEARS
                    -----------------------------------------------------------
   TIME STEP LENGTH  87667.      1461.1      24.352      1.0147     2.77799E-03
 STRESS PERIOD TIME 2.63000E+06  43833.      730.56      30.440     8.33397E-02
         TOTAL TIME 1.18435E+08 1.97392E+06  32899.      1370.8      3.7530    
1
1
                            STRESS PERIOD NO.   47, LENGTH =   2630000.    
                            -----------------------------------------------

                              NUMBER OF TIME STEPS =    30

                               MULTIPLIER FOR DELT =     1.000

                            INITIAL TIME STEP SIZE =   87666.66    

 REUSING NON-PARAMETER GHB CELLS FROM LAST STRESS PERIOD

      2 GHB CELLS

 REUSING STREAM SEGMENT DATA FROM LAST STRESS PERIOD



            AREAL INFILTRATION RATE
 READING ON UNIT   19 WITH FORMAT: (FREE)              

            1           2           3           4           5           6           7           8           9          10
 ........................................................................................................................
   1   1.0000E-10  2.0000E-10   0.000       0.000       0.000       0.000       0.000       0.000       0.000       0.000    
   2   2.0000E-10  1.0000E-10  2.0000E-10   0.000       0.000      8.0000E-10  8.0000E-10  5.0000E-10   0.000       0.000    
   3    0.000      5.0000E-10  1.0000E-10  1.0000E-10  8.0000E-10  8.0000E-10  5.0000E-10  5.0000E-10   0.000       0.000    
   4   8.0000E-10  5.0000E-10  1.0000E-10  1.0000E-10  1.0000E-10  1.0000E-10  1.0000E-10  1.0000E-10  2.0000E-10   0.000    
   5   8.0000E-10  5.0000E-10  1.0000E-10  1.0000E-10  1.0000E-10  1.0000E-10  1.0000E-10  1.0000E-10  1.0000E-10  1.0000E-10
   6   8.0000E-10  5.0000E-10  5.0000E-10  2.0000E-10  2.0000E-10  1.0000E-10  1.0000E-10  1.0000E-10  1.0000E-10  5.0000E-10
   7   8.0000E-10  5.0000E-10  5.0000E-10  2.0000E-10  2.0000E-10  1.0000E-10  1.0000E-10  2.0000E-10  2.0000E-10   0.000    
   8    0.000      5.0000E-10  5.0000E-10  2.0000E-10  2.0000E-10  1.0000E-10  1.0000E-10  2.0000E-10  5.0000E-10   0.000    
   9    0.000      5.0000E-10  5.0000E-10  2.0000E-10  2.0000E-10  1.0000E-10  1.0000E-10  2.0000E-10  5.0000E-10   0.000    
  10    0.000      5.0000E-10  5.0000E-10  2.0000E-10  2.0000E-10  1.0000E-10  1.0000E-10  2.0000E-10  5.0000E-10  8.0000E-10
  11    0.000      1.0000E-10  1.0000E-10  1.0000E-10  1.0000E-10  1.0000E-10  1.0000E-10  2.0000E-10  5.0000E-10   0.000    
  12   1.0000E-10  1.0000E-10  1.0000E-10  1.0000E-10  1.0000E-10  1.0000E-10  1.0000E-10  1.0000E-10  2.0000E-10   0.000    
  13   1.0000E-10  1.0000E-10  2.0000E-10  2.0000E-10  2.0000E-10  2.0000E-10  2.0000E-10  1.0000E-10  1.0000E-10   0.000    
  14    0.000      2.0000E-10  5.0000E-10  5.0000E-10  5.0000E-10  5.0000E-10  5.0000E-10  2.0000E-10  1.0000E-10   0.000    
  15    0.000       0.000      8.0000E-10  8.0000E-10  8.0000E-10  8.0000E-10   0.000       0.000       0.000       0.000    

                  ET RATE =  5.000000E-09

 USING ET EXTINCTION DEPTH FROM PREVIOUS STRESS PERIOD. CURRENT PERIOD IS:      47

 USING EXTINCTION WATER CONTENT FROM PREVIOUS STRESS PERIOD. CURRENT PERIOD IS:      47

 USING AIR ENTRY PRESSURE FROM PREVIOUS STRESS PERIOD. CURRENT PERIOD IS:      47

 USING ROOT PRESSURE HEAD FROM PREVIOUS STRESS PERIOD. CURRENT PERIOD IS:      47

 USING ROOT ACTIVITY FROM PREVIOUS STRESS PERIOD. CURRENT PERIOD IS:      47

 PROCESSING AG STRESS PERIOD DATA

 READING AG STRESS PERIOD DATA

 READING IRRIGATION SEGMENT

 READING IRRIGATION WELL

 READING SUPPLEMENTAL WELL

 NO IRRPOND OR REUSING IRRPOND DATA FROM LAST STRESS PERIOD

 END PROCESSING AG STRESS PERIOD DATA OPTIONS
 
 SOLVING FOR HEAD 
                                                   Max.-Head-Change                         Max.-Flux-Residual
  Residual-Control   Outer-Iter.   Inner-Iter.     Column Row Layer    Maximum-Head-Change  Column Row Layer    Maximum-Flux-Residual          L2-NORM 
          0                 1           2             5    8     1       0.2969429247E-01       5    8    1         0.1594702272E+01      0.3016671075E+01
          0                 2           2             5    8     1      -0.2761831698E-02       5    8    1        -0.1594712745E+00      0.2660526393E+00
          0                 3           2             5    8     1       0.1969299933E-03       5    8    1         0.1125317288E-01      0.1865997634E-01
          0                 4           1             4    8     1       0.1012796945E-04       4    8    1         0.5501986409E-03      0.1063033331E-02

    ------------------------------------------------
       NWT REQUIRED            4 OUTER ITERATIONS 
       AND A TOTAL OF          7 INNER ITERATIONS.
    ------------------------------------------------

 NO OUTPUT CONTROL FOR STRESS PERIOD   47   TIME STEP    1
 
 SOLVING FOR HEAD 
                                                   Max.-Head-Change                         Max.-Flux-Residual
  Residual-Control   Outer-Iter.   Inner-Iter.     Column Row Layer    Maximum-Head-Change  Column Row Layer    Maximum-Flux-Residual          L2-NORM 
          0                 1           2             5    8     1       0.2888356881E-01       5    8    1         0.1550374087E+01      0.2960415803E+01
          0                 2           2             4    8     1       0.1917872010E-02       4    8    1         0.1019366205E+00      0.2261379900E+00
          0                 3           2             4    8     1       0.1440824974E-03       4    8    1         0.7629836771E-02      0.1639748012E-01
          0                 4           1             4    8     1       0.1082446368E-04       4    8    1         0.5747383150E-03      0.1089512333E-02

    ------------------------------------------------
       NWT REQUIRED            4 OUTER ITERATIONS 
       AND A TOTAL OF          7 INNER ITERATIONS.
    ------------------------------------------------

 NO OUTPUT CONTROL FOR STRESS PERIOD   47   TIME STEP    2
 
 SOLVING FOR HEAD 
                                                   Max.-Head-Change                         Max.-Flux-Residual
  Residual-Control   Outer-Iter.   Inner-Iter.     Column Row Layer    Maximum-Head-Change  Column Row Layer    Maximum-Flux-Residual          L2-NORM 
          0                 1           2             5    8     1       0.2789906370E-01       5    8    1         0.1496240213E+01      0.2902409553E+01
          0                 2           2             5    6     1      -0.3602291845E-02       5    6    1        -0.2008536347E+00      0.2785195760E+00
          0                 3           2             5    6     1       0.2367814554E-02       5    6    1         0.1340596518E+00      0.3005814218E+00
          0                 4           2             4    8     1       0.2654183109E-03       4    7    1         0.1487437785E-01      0.3051925241E-01
          0                 5           1             4    8     1       0.3331010077E-04       4    8    1         0.1859824559E-02      0.3662268838E-02

    ------------------------------------------------
       NWT REQUIRED            5 OUTER ITERATIONS 
       AND A TOTAL OF          9 INNER ITERATIONS.
    ------------------------------------------------

 NO OUTPUT CONTROL FOR STRESS PERIOD   47   TIME STEP    3
 
 SOLVING FOR HEAD 
                                                   Max.-Head-Change                         Max.-Flux-Residual
  Residual-Control   Outer-Iter.   Inner-Iter.     Column Row Layer    Maximum-Head-Change  Column Row Layer    Maximum-Flux-Residual          L2-NORM 
          0                 1           2             5    8     1       0.2688248895E-01       5    8    1         0.1440340704E+01      0.2845592012E+01
          0                 2           2             5    8     1       0.1957226478E-02       5    8    1         0.1057219804E+00      0.2308889376E+00
          0                 3           2             4    6     1      -0.2130664024E-02       4    6    1        -0.1160863822E+00      0.2775326188E+00
          0                 4           2             4    6     1       0.2262227347E-02       4    6    1         0.1268360032E+00      0.2797822821E+00
          0                 5           2             4    7     1       0.2435925916E-03       4    7    1         0.1370643766E-01      0.2799706261E-01
          0                 6           1             4    7     1       0.3046806133E-04       4    7    1         0.1704392009E-02      0.3349632730E-02

    ------------------------------------------------
       NWT REQUIRED            6 OUTER ITERATIONS 
       AND A TOTAL OF         11 INNER ITERATIONS.
    ------------------------------------------------

 NO OUTPUT CONTROL FOR STRESS PERIOD   47   TIME STEP    4
 
 SOLVING FOR HEAD 
                                                   Max.-Head-Change                         Max.-Flux-Residual
  Residual-Control   Outer-Iter.   Inner-Iter.     Column Row Layer    Maximum-Head-Change  Column Row Layer    Maximum-Flux-Residual          L2-NORM 
          0                 1           2             5    8     1       0.2592932497E-01       5    8    1         0.1387979205E+01      0.2791815114E+01
          0                 2           2             5    8     1       0.1889862113E-02       5    8    1         0.1021026443E+00      0.2272143108E+00
          0                 3           2             4    6     1      -0.2130429517E-02       4    6    1        -0.1160663833E+00      0.2780408089E+00
          0                 4           2             4    6     1       0.2264128195E-02       4    6    1         0.1269422891E+00      0.2800105905E+00
          0                 5           2             4    7     1       0.2437902318E-03       4    7    1         0.1371758096E-01      0.2801855193E-01
          0                 6           1             4    7     1       0.3049325840E-04       4    7    1         0.1705803822E-02      0.3352297347E-02

    ------------------------------------------------
       NWT REQUIRED            6 OUTER ITERATIONS 
       AND A TOTAL OF         11 INNER ITERATIONS.
    ------------------------------------------------

 NO OUTPUT CONTROL FOR STRESS PERIOD   47   TIME STEP    5
 
 SOLVING FOR HEAD 
                                                   Max.-Head-Change                         Max.-Flux-Residual
  Residual-Control   Outer-Iter.   Inner-Iter.     Column Row Layer    Maximum-Head-Change  Column Row Layer    Maximum-Flux-Residual          L2-NORM 
          0                 1           2             5    8     1       0.2503463477E-01       5    8    1         0.1338877624E+01      0.2740821771E+01
          0                 2           2             5    8     1       0.1826528596E-02       5    8    1         0.9870055254E-01      0.2237427073E+00
          0                 3           2             4    6     1      -0.2130160793E-02       4    6    1        -0.1160449786E+00      0.2785144528E+00
          0                 4           2             4    6     1       0.2265825921E-02       4    6    1         0.1270372143E+00      0.2802134549E+00
          0                 5           2             4    7     1       0.2439660108E-03       4    7    1         0.1372749334E-01      0.2803751937E-01
          0                 6           1             4    7     1       0.3051518187E-04       4    7    1         0.1707032876E-02      0.3354466002E-02

    ------------------------------------------------
       NWT REQUIRED            6 OUTER ITERATIONS 
       AND A TOTAL OF         11 INNER ITERATIONS.
    ------------------------------------------------

 NO OUTPUT CONTROL FOR STRESS PERIOD   47   TIME STEP    6
 
 SOLVING FOR HEAD 
                                                   Max.-Head-Change                         Max.-Flux-Residual
  Residual-Control   Outer-Iter.   Inner-Iter.     Column Row Layer    Maximum-Head-Change  Column Row Layer    Maximum-Flux-Residual          L2-NORM 
          0                 1           2             5    8     1       0.2419355172E-01       5    8    1         0.1292790153E+01      0.2692276723E+01
          0                 2           2             5    8     1       0.1766896191E-02       5    8    1         0.9549512386E-01      0.2204495386E+00
          0                 3           2             4    6     1      -0.2129875057E-02       4    6    1        -0.1160230681E+00      0.2789621181E+00
          0                 4           2             4    6     1       0.2267349109E-02       4    6    1         0.1271223794E+00      0.2803943933E+00
          0                 5           2             4    7     1       0.2441223310E-03       4    7    1         0.1373631075E-01      0.2805441927E-01
          0                 6           1             4    7     1       0.3053467335E-04       4    7    1         0.1708125804E-02      0.3356455951E-02

    ------------------------------------------------
       NWT REQUIRED            6 OUTER ITERATIONS 
       AND A TOTAL OF         11 INNER ITERATIONS.
    ------------------------------------------------

 NO OUTPUT CONTROL FOR STRESS PERIOD   47   TIME STEP    7
 
 SOLVING FOR HEAD 
                                                   Max.-Head-Change                         Max.-Flux-Residual
  Residual-Control   Outer-Iter.   Inner-Iter.     Column Row Layer    Maximum-Head-Change  Column Row Layer    Maximum-Flux-Residual          L2-NORM 
          0                 1           2             5    8     1       0.2340179854E-01       5    8    1         0.1249444057E+01      0.2646436300E+01
          0                 2           2             4    8     1       0.1722034659E-02       5    8    1         0.9247384801E-01      0.2173589303E+00
          0                 3           2             4    6     1      -0.2129585764E-02       4    6    1        -0.1160013569E+00      0.2793960218E+00
          0                 4           2             4    6     1       0.2268720997E-02       4    6    1         0.1271990856E+00      0.2805564734E+00
          0                 5           2             4    7     1       0.2442617312E-03       4    7    1         0.1374417598E-01      0.2806941474E-01
          0                 6           1             4    7     1       0.3055204953E-04       4    7    1         0.1709100344E-02      0.3358219198E-02

    ------------------------------------------------
       NWT REQUIRED            6 OUTER ITERATIONS 
       AND A TOTAL OF         11 INNER ITERATIONS.
    ------------------------------------------------

 NO OUTPUT CONTROL FOR STRESS PERIOD   47   TIME STEP    8
 
 SOLVING FOR HEAD 
                                                   Max.-Head-Change                         Max.-Flux-Residual
  Residual-Control   Outer-Iter.   Inner-Iter.     Column Row Layer    Maximum-Head-Change  Column Row Layer    Maximum-Flux-Residual          L2-NORM 
          0                 1           2             5    8     1       0.2265637617E-01       5    8    1         0.1208651491E+01      0.2602607798E+01
          0                 2           2             4    8     1       0.1690284137E-02       4    8    1         0.8971319044E-01      0.2144059262E+00
          0                 3           2             4    6     1      -0.2129301663E-02       4    6    1        -0.1159802981E+00      0.2797845578E+00
          0                 4           2             4    6     1       0.2269961138E-02       4    6    1         0.1272684268E+00      0.2807019276E+00
          0                 5           2             4    7     1       0.2443865511E-03       4    7    1         0.1375122045E-01      0.2808280890E-01
          0                 6           1             4    7     1       0.3056760399E-04       4    7    1         0.1709972907E-02      0.3359792235E-02

    ------------------------------------------------
       NWT REQUIRED            6 OUTER ITERATIONS 
       AND A TOTAL OF         11 INNER ITERATIONS.
    ------------------------------------------------

 NO OUTPUT CONTROL FOR STRESS PERIOD   47   TIME STEP    9
 
 SOLVING FOR HEAD 
                                                   Max.-Head-Change                         Max.-Flux-Residual
  Residual-Control   Outer-Iter.   Inner-Iter.     Column Row Layer    Maximum-Head-Change  Column Row Layer    Maximum-Flux-Residual          L2-NORM 
          0                 1           2             5    8     1       0.2195357491E-01       5    8    1         0.1170227757E+01      0.2560725921E+01
          0                 2           2             4    8     1       0.1659144670E-02       4    8    1         0.8809331037E-01      0.2116263561E+00
          0                 3           2             4    6     1      -0.2129031059E-02       4    6    1        -0.1159603174E+00      0.2801518593E+00
          0                 4           2             4    6     1       0.2271085594E-02       4    6    1         0.1273313029E+00      0.2808328620E+00
          0                 5           2             4    7     1       0.2444992608E-03       4    7    1         0.1375758231E-01      0.2809485876E-01
          0                 6           1             4    7     1       0.3058164420E-04       4    7    1         0.1710760745E-02      0.3361207975E-02

    ------------------------------------------------
       NWT REQUIRED            6 OUTER ITERATIONS 
       AND A TOTAL OF         11 INNER ITERATIONS.
    ------------------------------------------------

 NO OUTPUT CONTROL FOR STRESS PERIOD   47   TIME STEP   10
 
 SOLVING FOR HEAD 
                                                   Max.-Head-Change                         Max.-Flux-Residual
  Residual-Control   Outer-Iter.   Inner-Iter.     Column Row Layer    Maximum-Head-Change  Column Row Layer    Maximum-Flux-Residual          L2-NORM 
          0                 1           2             4    8     1       0.2152570452E-01       4    8    1         0.1134829307E+01      0.2520617500E+01
          0                 2           2             4    8     1       0.1628771934E-02       4    8    1         0.8650533135E-01      0.2088803478E+00
          0                 3           2             4    6     1      -0.2128779029E-02       4    6    1        -0.1159416681E+00      0.2804983710E+00
          0                 4           2             4    6     1       0.2272110934E-02       4    6    1         0.1273886407E+00      0.2809513868E+00
          0                 5           2             4    7     1       0.2445985205E-03       4    7    1         0.1376318961E-01      0.2810549936E-01
          0                 6           1             4    7     1       0.3059400410E-04       4    7    1         0.1711454437E-02      0.3362448139E-02

    ------------------------------------------------
       NWT REQUIRED            6 OUTER ITERATIONS 
       AND A TOTAL OF         11 INNER ITERATIONS.
    ------------------------------------------------

 NO OUTPUT CONTROL FOR STRESS PERIOD   47   TIME STEP   11
 
 SOLVING FOR HEAD 
                                                   Max.-Head-Change                         Max.-Flux-Residual
  Residual-Control   Outer-Iter.   Inner-Iter.     Column Row Layer    Maximum-Head-Change  Column Row Layer    Maximum-Flux-Residual          L2-NORM 
          0                 1           2             4    8     1       0.2113742923E-01       4    8    1         0.1114288607E+01      0.2482182346E+01
          0                 2           2             4    8     1       0.1599034536E-02       4    8    1         0.8495207780E-01      0.2062895246E+00
          0                 3           2             4    6     1      -0.2128550628E-02       4    6    1        -0.1159246065E+00      0.2808271942E+00
          0                 4           2             4    6     1       0.2273045812E-02       4    6    1         0.1274409251E+00      0.2810585236E+00
          0                 5           2             4    7     1       0.2446891612E-03       4    7    1         0.1376830995E-01      0.2811516962E-01
          0                 6           1             4    7     1       0.3060528772E-04       4    7    1         0.1712087898E-02      0.3363578221E-02

    ------------------------------------------------
       NWT REQUIRED            6 OUTER ITERATIONS 
       AND A TOTAL OF         11 INNER ITERATIONS.
    ------------------------------------------------

 NO OUTPUT CONTROL FOR STRESS PERIOD   47   TIME STEP   12
 
 SOLVING FOR HEAD 
                                                   Max.-Head-Change                         Max.-Flux-Residual
  Residual-Control   Outer-Iter.   Inner-Iter.     Column Row Layer    Maximum-Head-Change  Column Row Layer    Maximum-Flux-Residual          L2-NORM 
          0                 1           2             4    8     1       0.2075721175E-01       4    8    1         0.1094162711E+01      0.2445286614E+01
          0                 2           2             4    8     1       0.1569979698E-02       4    8    1         0.8343218646E-01      0.1930316999E+00
          0                 3           2             5    6     1      -0.2139665783E-02       5    6    1        -0.1177360699E+00      0.2823913577E+00
          0                 4           2             4    6     1       0.2268598897E-02       4    6    1         0.1274880280E+00      0.2728198246E+00
          0                 5           2             4    7     1       0.2448823260E-03       4    7    1         0.1377157889E-01      0.3067424923E-01
          0                 6           1             4    7     1       0.3065626800E-04       4    7    1         0.1713635388E-02      0.3745718825E-02

    ------------------------------------------------
       NWT REQUIRED            6 OUTER ITERATIONS 
       AND A TOTAL OF         11 INNER ITERATIONS.
    ------------------------------------------------

 NO OUTPUT CONTROL FOR STRESS PERIOD   47   TIME STEP   13
 
 SOLVING FOR HEAD 
                                                   Max.-Head-Change                         Max.-Flux-Residual
  Residual-Control   Outer-Iter.   Inner-Iter.     Column Row Layer    Maximum-Head-Change  Column Row Layer    Maximum-Flux-Residual          L2-NORM 
          0                 1           2             4    8     1       0.2038540067E-01       4    8    1         0.1074470134E+01      0.2410259511E+01
          0                 2           2             4    8     1       0.1541605640E-02       4    8    1         0.8194704826E-01      0.1964271428E+00
          0                 3           2             4    6     1      -0.2127911607E-02       5    6    1        -0.1158634640E+00      0.2818259319E+00
          0                 4           2             4    6     1       0.2269399344E-02       4    6    1         0.1275302151E+00      0.2729778461E+00
          0                 5           2             4    7     1       0.2449590131E-03       4    7    1         0.1377587352E-01      0.3069348385E-01
          0                 6           1             4    7     1       0.3066593037E-04       4    7    1         0.1714172632E-02      0.3748039345E-02

    ------------------------------------------------
       NWT REQUIRED            6 OUTER ITERATIONS 
       AND A TOTAL OF         11 INNER ITERATIONS.
    ------------------------------------------------

 NO OUTPUT CONTROL FOR STRESS PERIOD   47   TIME STEP   14
 
 SOLVING FOR HEAD 
                                                   Max.-Head-Change                         Max.-Flux-Residual
  Residual-Control   Outer-Iter.   Inner-Iter.     Column Row Layer    Maximum-Head-Change  Column Row Layer    Maximum-Flux-Residual          L2-NORM 
          0                 1           2             4    8     1       0.2002201342E-01       4    8    1         0.1055214121E+01      0.2375579774E+01
          0                 2           2             4    8     1       0.1513903579E-02       4    8    1         0.8049621397E-01      0.1942058191E+00
          0                 3           2             4    6     1      -0.2127552639E-02       5    6    1        -0.1159858764E+00      0.2821112306E+00
          0                 4           2             4    6     1       0.2270100652E-02       4    6    1         0.1275697151E+00      0.2730494709E+00
          0                 5           2             4    7     1       0.2450252136E-03       4    7    1         0.1377961621E-01      0.3070114795E-01
          0                 6           1             4    7     1       0.3067416653E-04       4    7    1         0.1714635139E-02      0.3748964379E-02

    ------------------------------------------------
       NWT REQUIRED            6 OUTER ITERATIONS 
       AND A TOTAL OF         11 INNER ITERATIONS.
    ------------------------------------------------

 NO OUTPUT CONTROL FOR STRESS PERIOD   47   TIME STEP   15
 
 SOLVING FOR HEAD 
                                                   Max.-Head-Change                         Max.-Flux-Residual
  Residual-Control   Outer-Iter.   Inner-Iter.     Column Row Layer    Maximum-Head-Change  Column Row Layer    Maximum-Flux-Residual          L2-NORM 
          0                 1           2             4    8     1       0.1966676863E-01       4    8    1         0.1036382137E+01      0.2342224844E+01
          0                 2           2             4    8     1       0.1487003569E-02       4    8    1         0.7907889427E-01      0.1922951079E+00
          0                 3           2             4    6     1      -0.2127249720E-02       5    6    1        -0.1161001434E+00      0.2823646286E+00
          0                 4           2             4    6     1       0.2270746597E-02       4    6    1         0.1276061100E+00      0.2731085302E+00
          0                 5           2             4    7     1       0.2450860810E-03       4    7    1         0.1378303959E-01      0.3071499790E-01
          0                 6           1             4    7     1       0.3068183938E-04       4    7    1         0.1715061118E-02      0.3751616404E-02

    ------------------------------------------------
       NWT REQUIRED            6 OUTER ITERATIONS 
       AND A TOTAL OF         11 INNER ITERATIONS.
    ------------------------------------------------

 NO OUTPUT CONTROL FOR STRESS PERIOD   47   TIME STEP   16
 
 SOLVING FOR HEAD 
                                                   Max.-Head-Change                         Max.-Flux-Residual
  Residual-Control   Outer-Iter.   Inner-Iter.     Column Row Layer    Maximum-Head-Change  Column Row Layer    Maximum-Flux-Residual          L2-NORM 
          0                 1           2             4    8     1       0.1932045331E-01       4    8    1         0.1018001213E+01      0.2310251930E+01
          0                 2           2             4    8     1       0.1460626057E-02       4    8    1         0.7769948702E-01      0.1900409113E+00
          0                 3           2             4    6     1      -0.2127000559E-02       5    6    1        -0.1162070012E+00      0.2826323973E+00
          0                 4           2             4    6     1       0.2271344176E-02       4    6    1         0.1276397942E+00      0.2731668563E+00
          0                 5           2             4    7     1       0.2451391916E-03       4    7    1         0.1378604734E-01      0.3072104163E-01
          0                 6           1             4    7     1       0.3068843784E-04       4    7    1         0.1715432025E-02      0.3752340466E-02

    ------------------------------------------------
       NWT REQUIRED            6 OUTER ITERATIONS 
       AND A TOTAL OF         11 INNER ITERATIONS.
    ------------------------------------------------

 NO OUTPUT CONTROL FOR STRESS PERIOD   47   TIME STEP   17
 
 SOLVING FOR HEAD 
                                                   Max.-Head-Change                         Max.-Flux-Residual
  Residual-Control   Outer-Iter.   Inner-Iter.     Column Row Layer    Maximum-Head-Change  Column Row Layer    Maximum-Flux-Residual          L2-NORM 
          0                 1           2             4    8     1       0.1898238552E-01       4    8    1         0.1000058686E+01      0.2279491933E+01
          0                 2           2             4    8     1       0.1434979405E-02       4    8    1         0.7635289932E-01      0.1880421888E+00
          0                 3           2             4    7     1      -0.2128506179E-02       5    6    1        -0.1163072081E+00      0.2828800008E+00
          0                 4           2             4    6     1       0.2271896729E-02       4    6    1         0.1276709543E+00      0.2732207302E+00
          0                 5           2             4    7     1       0.2451884672E-03       4    7    1         0.1378883704E-01      0.3072676794E-01
          0                 6           1             4    7     1       0.3069455916E-04       4    7    1         0.1715776152E-02      0.3753028304E-02

    ------------------------------------------------
       NWT REQUIRED            6 OUTER ITERATIONS 
       AND A TOTAL OF         11 INNER ITERATIONS.
    ------------------------------------------------

 NO OUTPUT CONTROL FOR STRESS PERIOD   47   TIME STEP   18
 
 SOLVING FOR HEAD 
                                                   Max.-Head-Change                         Max.-Flux-Residual
  Residual-Control   Outer-Iter.   Inner-Iter.     Column Row Layer    Maximum-Head-Change  Column Row Layer    Maximum-Flux-Residual          L2-NORM 
          0                 1           2             4    8     1       0.1865276373E-01       4    8    1         0.9825613730E+00      0.2249775618E+01
          0                 2           2             4    8     1       0.1409993078E-02       4    8    1         0.7504025816E-01      0.1861036411E+00
          0                 3           2             4    7     1      -0.2130333419E-02       5    6    1        -0.1164012144E+00      0.2831169055E+00
          0                 4           2             4    6     1       0.2272409345E-02       4    6    1         0.1276998755E+00      0.2732697854E+00
          0                 5           2             4    7     1       0.2452323467E-03       4    7    1         0.1379132388E-01      0.3073187364E-01
          0                 6           1             4    7     1       0.3070000654E-04       4    7    1         0.1716082551E-02      0.3753639023E-02

    ------------------------------------------------
       NWT REQUIRED            6 OUTER ITERATIONS 
       AND A TOTAL OF         11 INNER ITERATIONS.
    ------------------------------------------------

 NO OUTPUT CONTROL FOR STRESS PERIOD   47   TIME STEP   19
 
 SOLVING FOR HEAD 
                                                   Max.-Head-Change                         Max.-Flux-Residual
  Residual-Control   Outer-Iter.   Inner-Iter.     Column Row Layer    Maximum-Head-Change  Column Row Layer    Maximum-Flux-Residual          L2-NORM 
          0                 1           2             4    8     1       0.1833118873E-01       4    8    1         0.9654886452E+00      0.2221035856E+01
          0                 2           2             4    8     1       0.1385634117E-02       4    8    1         0.7375988983E-01      0.1842209751E+00
          0                 3           2             4    7     1      -0.2132098129E-02       5    6    1        -0.1164895252E+00      0.2833446347E+00
          0                 4           2             4    6     1       0.2272884770E-02       4    6    1         0.1277267117E+00      0.2733144079E+00
          0                 5           2             4    7     1       0.2452722298E-03       4    7    1         0.1379358534E-01      0.3073652106E-01
          0                 6           1             4    7     1       0.3070495500E-04       4    7    1         0.1716360979E-02      0.3754194657E-02

    ------------------------------------------------
       NWT REQUIRED            6 OUTER ITERATIONS 
       AND A TOTAL OF         11 INNER ITERATIONS.
    ------------------------------------------------

 NO OUTPUT CONTROL FOR STRESS PERIOD   47   TIME STEP   20
 
 SOLVING FOR HEAD 
                                                   Max.-Head-Change                         Max.-Flux-Residual
  Residual-Control   Outer-Iter.   Inner-Iter.     Column Row Layer    Maximum-Head-Change  Column Row Layer    Maximum-Flux-Residual          L2-NORM 
          0                 1           2             4    8     1       0.1801773607E-01       4    8    1         0.9488454165E+00      0.2193207389E+01
          0                 2           2             4    8     1       0.1361905629E-02       4    8    1         0.7251205862E-01      0.1823897806E+00
          0                 3           2             4    7     1      -0.2133804977E-02       5    6    1        -0.1165727091E+00      0.2835633347E+00
          0                 4           2             4    6     1       0.2273327580E-02       4    6    1         0.1277517199E+00      0.2733550993E+00
          0                 5           2             4    7     1       0.2453082840E-03       4    7    1         0.1379563125E-01      0.3074073296E-01
          0                 6           1             4    7     1       0.3070942466E-04       4    7    1         0.1716612620E-02      0.3754697585E-02

    ------------------------------------------------
       NWT REQUIRED            6 OUTER ITERATIONS 
       AND A TOTAL OF         11 INNER ITERATIONS.
    ------------------------------------------------

 NO OUTPUT CONTROL FOR STRESS PERIOD   47   TIME STEP   21
 
 SOLVING FOR HEAD 
                                                   Max.-Head-Change                         Max.-Flux-Residual
  Residual-Control   Outer-Iter.   Inner-Iter.     Column Row Layer    Maximum-Head-Change  Column Row Layer    Maximum-Flux-Residual          L2-NORM 
          0                 1           2             4    8     1       0.1771210905E-01       4    8    1         0.9326161470E+00      0.2166247672E+01
          0                 2           2             4    8     1       0.1338783164E-02       4    8    1         0.7129553149E-01      0.1806079433E+00
          0                 3           2             4    7     1      -0.2135456990E-02       5    6    1        -0.1166510772E+00      0.2837737650E+00
          0                 4           2             4    6     1       0.2273739493E-02       4    6    1         0.1277749960E+00      0.2733921455E+00
          0                 5           2             4    7     1       0.2453409166E-03       4    7    1         0.1379748431E-01      0.3074454766E-01
          0                 6           1             4    7     1       0.3071346735E-04       4    7    1         0.1716840342E-02      0.3755151208E-02

    ------------------------------------------------
       NWT REQUIRED            6 OUTER ITERATIONS 
       AND A TOTAL OF         11 INNER ITERATIONS.
    ------------------------------------------------

 NO OUTPUT CONTROL FOR STRESS PERIOD   47   TIME STEP   22
 
 SOLVING FOR HEAD 
                                                   Max.-Head-Change                         Max.-Flux-Residual
  Residual-Control   Outer-Iter.   Inner-Iter.     Column Row Layer    Maximum-Head-Change  Column Row Layer    Maximum-Flux-Residual          L2-NORM 
          0                 1           2             4    8     1       0.1741424296E-01       4    8    1         0.9167982623E+00      0.2140101045E+01
          0                 2           2             4    8     1       0.1316258904E-02       4    8    1         0.7010995218E-01      0.1788714964E+00
          0                 3           2             4    7     1      -0.2137057102E-02       5    6    1        -0.1167249937E+00      0.2839761291E+00
          0                 4           2             4    6     1       0.2274123426E-02       4    6    1         0.1277967037E+00      0.2734258676E+00
          0                 5           2             4    7     1       0.2453701144E-03       4    7    1         0.1379914416E-01      0.3074796956E-01
          0                 6           1             4    7     1       0.3071708154E-04       4    7    1         0.1717044040E-02      0.3755559207E-02

    ------------------------------------------------
       NWT REQUIRED            6 OUTER ITERATIONS 
       AND A TOTAL OF         11 INNER ITERATIONS.
    ------------------------------------------------

 NO OUTPUT CONTROL FOR STRESS PERIOD   47   TIME STEP   23
 
 SOLVING FOR HEAD 
                                                   Max.-Head-Change                         Max.-Flux-Residual
  Residual-Control   Outer-Iter.   Inner-Iter.     Column Row Layer    Maximum-Head-Change  Column Row Layer    Maximum-Flux-Residual          L2-NORM 
          0                 1           2             4    8     1       0.1712394366E-01       4    8    1         0.9013818580E+00      0.2114713596E+01
          0                 2           2             4    8     1       0.1294316659E-02       4    8    1         0.6895454529E-01      0.1771774949E+00
          0                 3           2             4    7     1      -0.2138610134E-02       5    6    1        -0.1167949433E+00      0.2841711921E+00
          0                 4           2             4    6     1       0.2274482690E-02       4    6    1         0.1278170287E+00      0.2734566826E+00
          0                 5           2             4    7     1       0.2453962569E-03       4    7    1         0.1380063212E-01      0.3075105741E-01
          0                 6           1             4    7     1       0.3072031361E-04       4    7    1         0.1717226363E-02      0.3755922049E-02

    ------------------------------------------------
       NWT REQUIRED            6 OUTER ITERATIONS 
       AND A TOTAL OF         11 INNER ITERATIONS.
    ------------------------------------------------

 NO OUTPUT CONTROL FOR STRESS PERIOD   47   TIME STEP   24
 
 SOLVING FOR HEAD 
                                                   Max.-Head-Change                         Max.-Flux-Residual
  Residual-Control   Outer-Iter.   Inner-Iter.     Column Row Layer    Maximum-Head-Change  Column Row Layer    Maximum-Flux-Residual          L2-NORM 
          0                 1           2             4    8     1       0.1684089955E-01       4    8    1         0.8863503690E+00      0.2090052616E+01
          0                 2           2             4    8     1       0.1272931924E-02       4    8    1         0.6782804119E-01      0.1755239316E+00
          0                 3           2             4    7     1      -0.2140117017E-02       5    6    1        -0.1168611389E+00      0.2843594079E+00
          0                 4           2             4    6     1       0.2274818407E-02       4    6    1         0.1278360336E+00      0.2734847433E+00
          0                 5           2             4    7     1       0.2454198667E-03       4    7    1         0.1380197722E-01      0.3075385092E-01
          0                 6           1             4    7     1       0.3072322996E-04       4    7    1         0.1717390976E-02      0.3756251336E-02

    ------------------------------------------------
       NWT REQUIRED            6 OUTER ITERATIONS 
       AND A TOTAL OF         11 INNER ITERATIONS.
    ------------------------------------------------

 NO OUTPUT CONTROL FOR STRESS PERIOD   47   TIME STEP   25
 
 SOLVING FOR HEAD 
                                                   Max.-Head-Change                         Max.-Flux-Residual
  Residual-Control   Outer-Iter.   Inner-Iter.     Column Row Layer    Maximum-Head-Change  Column Row Layer    Maximum-Flux-Residual          L2-NORM 
          0                 1           2             4    8     1       0.1656504068E-01       4    8    1         0.8717005130E+00      0.2066078725E+01
          0                 2           2             4    8     1       0.1252097915E-02       4    8    1         0.6673012856E-01      0.1739084887E+00
          0                 3           2             4    7     1      -0.2141580153E-02       5    6    1        -0.1169238655E+00      0.2845410005E+00
          0                 4           2             4    6     1       0.2275131656E-02       4    6    1         0.1278537791E+00      0.2735101559E+00
          0                 5           2             4    7     1       0.2454416058E-03       4    7    1         0.1380321609E-01      0.3075643257E-01
          0                 6           1             4    7     1       0.3072591329E-04       4    7    1         0.1717542519E-02      0.3756557349E-02

    ------------------------------------------------
       NWT REQUIRED            6 OUTER ITERATIONS 
       AND A TOTAL OF         11 INNER ITERATIONS.
    ------------------------------------------------

 NO OUTPUT CONTROL FOR STRESS PERIOD   47   TIME STEP   26
 
 SOLVING FOR HEAD 
                                                   Max.-Head-Change                         Max.-Flux-Residual
  Residual-Control   Outer-Iter.   Inner-Iter.     Column Row Layer    Maximum-Head-Change  Column Row Layer    Maximum-Flux-Residual          L2-NORM 
          0                 1           2             4    8     1       0.1629628647E-01       4    8    1         0.8574285845E+00      0.2042759274E+01
          0                 2           2             4    8     1       0.1231805664E-02       4    8    1         0.6566040798E-01      0.1723294835E+00
          0                 3           2             4    7     1      -0.2143002159E-02       5    6    1        -0.1169833722E+00      0.2847162793E+00
          0                 4           2             4    6     1       0.2275426320E-02       4    6    1         0.1278704822E+00      0.2735334541E+00
          0                 5           2             4    7     1       0.2454596248E-03       4    7    1         0.1380424723E-01      0.3075859574E-01
          0                 6           1             4    7     1       0.3072831214E-04       4    7    1         0.1717677972E-02      0.3756829838E-02

    ------------------------------------------------
       NWT REQUIRED            6 OUTER ITERATIONS 
       AND A TOTAL OF         11 INNER ITERATIONS.
    ------------------------------------------------

 NO OUTPUT CONTROL FOR STRESS PERIOD   47   TIME STEP   27
 
 SOLVING FOR HEAD 
                                                   Max.-Head-Change                         Max.-Flux-Residual
  Residual-Control   Outer-Iter.   Inner-Iter.     Column Row Layer    Maximum-Head-Change  Column Row Layer    Maximum-Flux-Residual          L2-NORM 
          0                 1           2             4    8     1       0.1603431639E-01       4    8    1         0.8435174544E+00      0.2020056487E+01
          0                 2           2             4    8     1       0.1212031875E-02       4    8    1         0.6461767233E-01      0.1707846433E+00
          0                 3           2             4    7     1      -0.2144387358E-02       5    6    1        -0.1170399792E+00      0.2848859432E+00
          0                 4           2             4    6     1       0.2275703116E-02       4    6    1         0.1278861840E+00      0.2735546641E+00
          0                 5           2             4    7     1       0.2454766558E-03       4    7    1         0.1380522141E-01      0.3076064535E-01
          0                 6           1             4    7     1       0.3073022828E-04       4    7    1         0.1717786670E-02      0.3757046121E-02

    ------------------------------------------------
       NWT REQUIRED            6 OUTER ITERATIONS 
       AND A TOTAL OF         11 INNER ITERATIONS.
    ------------------------------------------------

 NO OUTPUT CONTROL FOR STRESS PERIOD   47   TIME STEP   28
 
 SOLVING FOR HEAD 
                                                   Max.-Head-Change                         Max.-Flux-Residual
  Residual-Control   Outer-Iter.   Inner-Iter.     Column Row Layer    Maximum-Head-Change  Column Row Layer    Maximum-Flux-Residual          L2-NORM 
          0                 1           2             4    8     1       0.1577893793E-01       4    8    1         0.8299569750E+00      0.1997950862E+01
          0                 2           2             4    8     1       0.1192760871E-02       4    8    1         0.6360110311E-01      0.1692731165E+00
          0                 3           2             4    7     1      -0.2145734126E-02       5    6    1        -0.1170938283E+00      0.2850499391E+00
          0                 4           2             4    6     1       0.2275962675E-02       4    6    1         0.1279009192E+00      0.2735739009E+00
          0                 5           2             4    7     1       0.2454915809E-03       4    7    1         0.1380607709E-01      0.3076246367E-01
          0                 6           1             4    7     1       0.3073206135E-04       4    7    1         0.1717890560E-02      0.3757262020E-02

    ------------------------------------------------
       NWT REQUIRED            6 OUTER ITERATIONS 
       AND A TOTAL OF         11 INNER ITERATIONS.
    ------------------------------------------------

 NO OUTPUT CONTROL FOR STRESS PERIOD   47   TIME STEP   29
 
 SOLVING FOR HEAD 
                                                   Max.-Head-Change                         Max.-Flux-Residual
  Residual-Control   Outer-Iter.   Inner-Iter.     Column Row Layer    Maximum-Head-Change  Column Row Layer    Maximum-Flux-Residual          L2-NORM 
          0                 1           2             4    8     1       0.1552995413E-01       4    8    1         0.8167371879E+00      0.1976669116E+01
          0                 2           2             4    8     1       0.1173975363E-02       4    8    1         0.6260985213E-01      0.1678228481E+00
          0                 3           2             4    7     1      -0.2147046548E-02       5    6    1        -0.1171450660E+00      0.2852149248E+00
          0                 4           2             4    6     1       0.2276206714E-02       4    6    1         0.1279147842E+00      0.2735913803E+00
          0                 5           2             4    7     1       0.2455047486E-03       4    7    1         0.1380683371E-01      0.3076407396E-01
          0                 6           1             4    7     1       0.3073367538E-04       4    7    1         0.1717982169E-02      0.3757441970E-02

    ------------------------------------------------
       NWT REQUIRED            6 OUTER ITERATIONS 
       AND A TOTAL OF         11 INNER ITERATIONS.
    ------------------------------------------------

 NO OUTPUT CONTROL FOR STRESS PERIOD   47   TIME STEP   30



 STREAM LISTING     PERIOD     47   STEP       30

 LAYER ROW COL. STREAM  RCH.  FLOW INTO     FLOW TO   FLOW OUT OF   OVRLND.     DIRECT     STREAM       STREAM     STREAM     STREAM   STREAMBED  STREAMBED
                SEG.NO.  NO.  STRM. RCH.    AQUIFER    STRM. RCH.    RUNOFF     PRECIP       ET          HEAD       DEPTH      WIDTH   CONDCTNC.   GRADIENT

   1    1    1     1     1    7.9710E+00  1.2901E-01   7.8420E+00  0.000E+00  0.000E+00  0.000E+00  1.09388E+03  8.328E-01  7.480E+00  3.366E-02  1.278E+00
   1    2    2     1     2    7.8420E+00  1.9811E-01   7.6439E+00  0.000E+00  0.000E+00  0.000E+00  1.08889E+03  8.271E-01  7.395E+00  5.177E-02  1.276E+00
   1    3    3     1     3    7.6439E+00  1.6733E-01   7.4765E+00  0.000E+00  0.000E+00  0.000E+00  1.08324E+03  8.206E-01  7.300E+00  4.380E-02  1.274E+00
   1    3    4     1     4    7.4765E+00  1.5276E-01   7.3238E+00  0.000E+00  0.000E+00  0.000E+00  1.07822E+03  8.148E-01  7.215E+00  4.004E-02  1.272E+00
   1    4    5     2     1    5.3238E+00  2.7067E-01   5.0531E+00  0.000E+00  0.000E+00  0.000E+00  1.07240E+03  4.701E-01  1.200E+01  7.800E-02  1.157E+00
   1    5    6     2     2    5.0531E+00  2.0742E-01   4.8457E+00  0.000E+00  0.000E+00  0.000E+00  1.06697E+03  4.570E-01  1.200E+01  6.000E-02  1.152E+00
   1    6    6     2     3    4.8457E+00  2.0672E-01   4.6390E+00  0.000E+00  0.000E+00  0.000E+00  1.06224E+03  4.454E-01  1.200E+01  6.000E-02  1.148E+00
   1    7    6     2     4    4.6390E+00  2.0602E-01   4.4330E+00  0.000E+00  0.000E+00  0.000E+00  1.05751E+03  4.337E-01  1.200E+01  6.000E-02  1.145E+00
   1    8    6     2     5    4.4330E+00  2.0530E-01   4.2276E+00  0.000E+00  0.000E+00  0.000E+00  1.05278E+03  4.218E-01  1.200E+01  6.000E-02  1.141E+00
   1    3    5     3     1    2.0000E+00  2.8252E-01   1.7175E+00  0.000E+00  0.000E+00  0.000E+00  1.07555E+03  1.909E+00  9.636E+00  7.227E-02  1.955E+00
   1    3    6     3     2    1.7175E+00  2.4905E-01   1.4684E+00  0.000E+00  0.000E+00  0.000E+00  1.07264E+03  1.727E+00  8.909E+00  6.682E-02  1.864E+00
   1    3    7     3     3    1.4684E+00  1.9718E-01   1.2712E+00  0.000E+00  0.000E+00  0.000E+00  1.06987E+03  1.555E+00  8.218E+00  5.547E-02  1.777E+00
   1    4    8     3     4    1.2712E+00  2.2567E-01   1.0456E+00  0.000E+00  0.000E+00  0.000E+00  1.06682E+03  1.364E+00  7.455E+00  6.709E-02  1.682E+00
   1    5    8     3     5    1.0456E+00  1.5790E-01   8.8768E-01  0.000E+00  0.000E+00  0.000E+00  1.06362E+03  1.164E+00  6.655E+00  4.991E-02  1.582E+00
   1    6    8     3     6    8.8768E-01  5.5980E-02   8.3170E-01  0.000E+00  0.000E+00  0.000E+00  1.06158E+03  1.036E+00  6.145E+00  1.844E-02  1.518E+00
   1    5   10     4     1    1.0000E+01  9.0919E-02   9.9091E+00  0.000E+00  0.000E+00  0.000E+00  1.07836E+03  6.368E-01  1.000E+01  2.500E-02  1.212E+00
   1    5    9     4     2    9.9091E+00  1.8158E-01   9.7275E+00  0.000E+00  0.000E+00  0.000E+00  1.07154E+03  6.315E-01  1.000E+01  5.000E-02  1.211E+00
   1    6    8     4     3    9.7275E+00  1.2689E-01   9.6006E+00  0.000E+00  0.000E+00  0.000E+00  1.06381E+03  6.256E-01  1.000E+01  3.500E-02  1.209E+00
   1    6    8     5     1    1.0432E+01  2.2686E-01   1.0205E+01  0.000E+00  0.000E+00  0.000E+00  1.05868E+03  6.790E-01  1.542E+01  6.166E-02  1.226E+00
   1    7    7     5     2    1.0205E+01  2.7894E-01   9.9265E+00  0.000E+00  0.000E+00  0.000E+00  1.05417E+03  6.732E-01  1.519E+01  7.594E-02  1.224E+00
   1    8    7     5     3    9.9265E+00  1.9221E-01   9.7343E+00  0.000E+00  0.000E+00  0.000E+00  1.04992E+03  6.676E-01  1.497E+01  5.241E-02  1.223E+00
   1    8    6     5     4    9.7343E+00  1.3577E-01   9.5985E+00  0.000E+00  0.000E+00  0.000E+00  1.04691E+03  6.637E-01  1.482E+01  3.706E-02  1.221E+00
   1    9    6     6     1    1.3107E+01  2.2947E-01   1.2878E+01  0.000E+00  0.000E+00  0.000E+00  1.04355E+03  8.245E-01  1.200E+01  6.000E-02  1.275E+00
   1   10    7     6     2    1.2878E+01  2.2894E-01   1.2649E+01  0.000E+00  0.000E+00  0.000E+00  1.03900E+03  8.157E-01  1.200E+01  6.000E-02  1.272E+00
   1   11    7     6     3    1.2649E+01  2.2842E-01   1.2420E+01  0.000E+00  0.000E+00  0.000E+00  1.03444E+03  8.069E-01  1.200E+01  6.000E-02  1.269E+00
   1   12    7     6     4    1.2420E+01  2.2789E-01   1.2193E+01  0.000E+00  0.000E+00  0.000E+00  1.02989E+03  7.981E-01  1.200E+01  6.000E-02  1.266E+00
   1   13    7     6     5    1.2193E+01  7.0126E-03   1.2186E+01  0.000E+00  0.000E+00  0.000E+00  1.02670E+03  7.935E-01  1.200E+01  2.400E-02  9.740E-02
   1   14    9     7     1    1.5000E+02  1.4094E+00   1.4859E+02  0.000E+00  0.000E+00  0.000E+00  1.03987E+03  2.288E+00  5.529E+01  5.593E-01  8.400E-01
   1   13    8     7     2    1.4859E+02  2.0562E+00   1.4653E+02  0.000E+00  0.000E+00  0.000E+00  1.03478E+03  2.278E+00  5.525E+01  6.147E-01  1.115E+00
   1   13    7     7     3    1.4653E+02  1.8296E+00   1.4470E+02  0.000E+00  0.000E+00  0.000E+00  1.02969E+03  2.268E+00  5.521E+01  5.583E-01  1.092E+00
   1   13    6     8     1    1.5689E+02  1.1915E+00   1.5570E+02  0.000E+00  0.000E+00  0.000E+00  1.02474E+03  2.861E+00  4.148E+01  4.227E-01  9.396E-01
   1   13    5     8     2    1.5570E+02  4.3090E-01   1.5527E+02  0.000E+00  0.000E+00  0.000E+00  1.01848E+03  2.855E+00  4.140E+01  4.219E-01  3.405E-01
   1   13    4     8     3    1.5527E+02 -1.5621E+00   1.5683E+02  0.000E+00  0.000E+00  0.000E+00  1.01223E+03  2.859E+00  4.145E+01  4.224E+00 -1.233E-01
   1   13    3     8     4    1.5683E+02 -3.2060E+00   1.6004E+02  0.000E+00  0.000E+00  0.000E+00  1.00600E+03  2.875E+00  4.169E+01  4.248E+00 -2.515E-01
   1   13    2     8     5    1.6004E+02 -2.4613E+00   1.6250E+02  0.000E+00  0.000E+00  0.000E+00  9.99769E+02  2.894E+00  4.197E+01  4.277E+00 -1.918E-01
   1   13    1     8     6    1.6250E+02 -1.9428E+00   1.6444E+02  0.000E+00  0.000E+00  0.000E+00  9.94784E+02  2.909E+00  4.218E+01  2.579E+00 -2.511E-01
   1    8    6     9     1    7.1885E-01  0.0000E+00   7.1885E-01  0.000E+00  0.000E+00  0.000E+00  1.07922E+03  4.669E-01  4.000E+00  0.000E+00  1.156E+00
   1    8    5     9     2    7.1885E-01  0.0000E+00   7.1885E-01  0.000E+00  0.000E+00  0.000E+00  1.07872E+03  4.669E-01  4.000E+00  0.000E+00  1.156E+00





UNSATURATED ZONE PACKAGE VOLUMETRIC BUDGET FOR  TIME STEP    30 STRESS PERIOD   47
  ------------------------------------------------------------------------------



     CUMULATIVE VOLUMES      L**3       RATES FOR THIS TIME STEP      L**3/T
     ------------------                 ------------------------

           IN:                                      IN:
           ---                                      ---
        INFILTRATION =  2185943318.6680          INFILTRATION =           1.5664

          OUT:                                     OUT:
          ----                                     ----
              UZF ET =  1702230687.5435                UZF ET =           1.5675
        UZF RECHARGE =   227030903.7743          UZF RECHARGE =           0.7050

            IN - OUT =   256681727.3503              IN - OUT =          -0.7061

          STORAGE:                                 STORAGE:
          --------                                 --------
      STORAGE CHANGE =   256681974.9373        STORAGE CHANGE =          -0.7061

 PERCENT DISCREPANCY IS DIFFERENCE BETWEEN IN-OUT MINUS CHANGE IN STORAGE
 DIVIDED BY THE AVERAGE OF IN AND OUT TIMES 100

 PERCENT DISCREPANCY =          -0.00     PERCENT DISCREPANCY =           0.00






1
  VOLUMETRIC BUDGET FOR AGRICULTURAL FIELDS AT  END OF TIME STEP   30, STRESS PERIOD  47
  ------------------------------------------------------------------------------

     CUMULATIVE VOLUMES      L**3       RATES FOR THIS TIME STEP      L**3/T
     ------------------                 ------------------------

           IN:                                      IN:
           ---                                      ---
               AG WELLS  =  1347940992.0000                 AG WELLS  =           0.0000
      DIVERSION SEGMENTS =   735501696.0000        DIVERSION SEGMENTS =           0.7188
       IRRIGATION PONDS  =           0.0000         IRRIGATION PONDS  =           0.0000
           GW IRRIGATION =           0.0000             GW IRRIGATION =           0.0000
           SW IRRIGATION =           0.0000             SW IRRIGATION =           0.0000
        SYSTEM LOSSES GW =           0.0000          SYSTEM LOSSES GW =           0.0000
        SYSTEM LOSSES SW =           0.0000          SYSTEM LOSSES SW =           0.0000

                TOTAL IN =  2083442688.0000                  TOTAL IN =           0.7188

          OUT:                                     OUT:
          ----                                     ----
               AG WELLS  =           0.0000                 AG WELLS  =           0.0000
      DIVERSION SEGMENTS =           0.0000        DIVERSION SEGMENTS =           0.0000
       IRRIGATION PONDS  =           0.0000         IRRIGATION PONDS  =           0.0000
           GW IRRIGATION =  1347940992.0000             GW IRRIGATION =           0.0000
           SW IRRIGATION =   735514688.0000             SW IRRIGATION =           0.7189
        SYSTEM LOSSES GW =           0.0000          SYSTEM LOSSES GW =           0.0000
        SYSTEM LOSSES SW =           0.0000          SYSTEM LOSSES SW =           0.0000

               TOTAL OUT =  2083455744.0000                 TOTAL OUT =           0.7189

                IN - OUT =      -13056.0000                  IN - OUT =      -1.4365E-05

     PERCENT DISCREPANCY =          -0.00         PERCENT DISCREPANCY =          -0.00



1
  VOLUMETRIC BUDGET FOR ENTIRE MODEL AT END OF TIME STEP   30, STRESS PERIOD  47
  ------------------------------------------------------------------------------

     CUMULATIVE VOLUMES      L**3       RATES FOR THIS TIME STEP      L**3/T
     ------------------                 ------------------------

           IN:                                      IN:
           ---                                      ---
             STORAGE     =  1928758528.0000               STORAGE     =           3.7982
       CONSTANT HEAD     =           0.0000         CONSTANT HEAD     =           0.0000
     HEAD DEP BOUNDS     =    34981088.0000       HEAD DEP BOUNDS     =           0.2908
      STREAM LEAKAGE     =  1459127680.0000        STREAM LEAKAGE     =          11.9841
        UZF RECHARGE     =   227030928.0000          UZF RECHARGE     =           0.7050
               GW ET     =           0.0000                 GW ET     =           0.0000
     SURFACE LEAKAGE     =           0.0000       SURFACE LEAKAGE     =           0.0000
           AG WELLS      =           0.0000             AG WELLS      =           0.0000

                TOTAL IN =  3649898496.0000                  TOTAL IN =          16.7781

          OUT:                                     OUT:
          ----                                     ----
             STORAGE     =  1087936256.0000               STORAGE     =           7.3184
       CONSTANT HEAD     =           0.0000         CONSTANT HEAD     =           0.0000
     HEAD DEP BOUNDS     =    34827212.0000       HEAD DEP BOUNDS     =           0.2864
      STREAM LEAKAGE     =  1179167872.0000        STREAM LEAKAGE     =           9.1722
        UZF RECHARGE     =           0.0000          UZF RECHARGE     =           0.0000
               GW ET     =           0.0000                 GW ET     =           0.0000
     SURFACE LEAKAGE     =           0.0000       SURFACE LEAKAGE     =           0.0000
           AG WELLS      =  1347940992.0000             AG WELLS      =           0.0000

               TOTAL OUT =  3649872384.0000                 TOTAL OUT =          16.7770

                IN - OUT =       26112.0000                  IN - OUT =       1.0509E-03

     PERCENT DISCREPANCY =           0.00         PERCENT DISCREPANCY =           0.01






         TIME SUMMARY AT END OF TIME STEP   30 IN STRESS PERIOD   47
                    SECONDS     MINUTES      HOURS       DAYS        YEARS
                    -----------------------------------------------------------
   TIME STEP LENGTH  87667.      1461.1      24.352      1.0147     2.77799E-03
 STRESS PERIOD TIME 2.63000E+06  43833.      730.56      30.440     8.33397E-02
         TOTAL TIME 1.21065E+08 2.01775E+06  33629.      1401.2      3.8363    
1
1
                            STRESS PERIOD NO.   48, LENGTH =   2630000.    
                            -----------------------------------------------

                              NUMBER OF TIME STEPS =    30

                               MULTIPLIER FOR DELT =     1.000

                            INITIAL TIME STEP SIZE =   87666.66    

 REUSING NON-PARAMETER GHB CELLS FROM LAST STRESS PERIOD

      2 GHB CELLS

 REUSING STREAM SEGMENT DATA FROM LAST STRESS PERIOD



            AREAL INFILTRATION RATE
 READING ON UNIT   19 WITH FORMAT: (FREE)              

            1           2           3           4           5           6           7           8           9          10
 ........................................................................................................................
   1   1.0000E-10  2.0000E-10   0.000       0.000       0.000       0.000       0.000       0.000       0.000       0.000    
   2   2.0000E-10  1.0000E-10  2.0000E-10   0.000       0.000      8.0000E-10  8.0000E-10  5.0000E-10   0.000       0.000    
   3    0.000      5.0000E-10  1.0000E-10  1.0000E-10  8.0000E-10  8.0000E-10  5.0000E-10  5.0000E-10   0.000       0.000    
   4   8.0000E-10  5.0000E-10  1.0000E-10  1.0000E-10  1.0000E-10  1.0000E-10  1.0000E-10  1.0000E-10  2.0000E-10   0.000    
   5   8.0000E-10  5.0000E-10  1.0000E-10  1.0000E-10  1.0000E-10  1.0000E-10  1.0000E-10  1.0000E-10  1.0000E-10  1.0000E-10
   6   8.0000E-10  5.0000E-10  5.0000E-10  2.0000E-10  2.0000E-10  1.0000E-10  1.0000E-10  1.0000E-10  1.0000E-10  5.0000E-10
   7   8.0000E-10  5.0000E-10  5.0000E-10  2.0000E-10  2.0000E-10  1.0000E-10  1.0000E-10  2.0000E-10  2.0000E-10   0.000    
   8    0.000      5.0000E-10  5.0000E-10  2.0000E-10  2.0000E-10  1.0000E-10  1.0000E-10  2.0000E-10  5.0000E-10   0.000    
   9    0.000      5.0000E-10  5.0000E-10  2.0000E-10  2.0000E-10  1.0000E-10  1.0000E-10  2.0000E-10  5.0000E-10   0.000    
  10    0.000      5.0000E-10  5.0000E-10  2.0000E-10  2.0000E-10  1.0000E-10  1.0000E-10  2.0000E-10  5.0000E-10  8.0000E-10
  11    0.000      1.0000E-10  1.0000E-10  1.0000E-10  1.0000E-10  1.0000E-10  1.0000E-10  2.0000E-10  5.0000E-10   0.000    
  12   1.0000E-10  1.0000E-10  1.0000E-10  1.0000E-10  1.0000E-10  1.0000E-10  1.0000E-10  1.0000E-10  2.0000E-10   0.000    
  13   1.0000E-10  1.0000E-10  2.0000E-10  2.0000E-10  2.0000E-10  2.0000E-10  2.0000E-10  1.0000E-10  1.0000E-10   0.000    
  14    0.000      2.0000E-10  5.0000E-10  5.0000E-10  5.0000E-10  5.0000E-10  5.0000E-10  2.0000E-10  1.0000E-10   0.000    
  15    0.000       0.000      8.0000E-10  8.0000E-10  8.0000E-10  8.0000E-10   0.000       0.000       0.000       0.000    

                  ET RATE =  5.000000E-10

 USING ET EXTINCTION DEPTH FROM PREVIOUS STRESS PERIOD. CURRENT PERIOD IS:      48

 USING EXTINCTION WATER CONTENT FROM PREVIOUS STRESS PERIOD. CURRENT PERIOD IS:      48

 USING AIR ENTRY PRESSURE FROM PREVIOUS STRESS PERIOD. CURRENT PERIOD IS:      48

 USING ROOT PRESSURE HEAD FROM PREVIOUS STRESS PERIOD. CURRENT PERIOD IS:      48

 USING ROOT ACTIVITY FROM PREVIOUS STRESS PERIOD. CURRENT PERIOD IS:      48

 PROCESSING AG STRESS PERIOD DATA

 READING AG STRESS PERIOD DATA

 READING IRRIGATION SEGMENT

 READING IRRIGATION WELL

 READING SUPPLEMENTAL WELL

 NO IRRPOND OR REUSING IRRPOND DATA FROM LAST STRESS PERIOD

 END PROCESSING AG STRESS PERIOD DATA OPTIONS
 
 SOLVING FOR HEAD 
                                                   Max.-Head-Change                         Max.-Flux-Residual
  Residual-Control   Outer-Iter.   Inner-Iter.     Column Row Layer    Maximum-Head-Change  Column Row Layer    Maximum-Flux-Residual          L2-NORM 
          0                 1           2             4    8     1       0.1528741028E-01       4    8    1         0.8038606386E+00      0.1955779038E+01
          0                 2           2             4    8     1       0.1155678710E-02       4    7    1         0.6181988593E-01      0.1663864225E+00
          0                 3           1             4    8     1       0.8730698572E-04       4    8    1         0.4586919711E-02      0.1194099615E-01

    ------------------------------------------------
       NWT REQUIRED            3 OUTER ITERATIONS 
       AND A TOTAL OF          5 INNER ITERATIONS.
    ------------------------------------------------

 NO OUTPUT CONTROL FOR STRESS PERIOD   48   TIME STEP    1
 
 SOLVING FOR HEAD 
                                                   Max.-Head-Change                         Max.-Flux-Residual
  Residual-Control   Outer-Iter.   Inner-Iter.     Column Row Layer    Maximum-Head-Change  Column Row Layer    Maximum-Flux-Residual          L2-NORM 
          0                 1           2             4    7     1       0.1507549172E-01       4    8    1         0.7913027001E+00      0.1935253800E+01
          0                 2           2             4    8     1       0.1137837030E-02       4    7    1         0.6109211270E-01      0.1649617191E+00
          0                 3           1             4    8     1       0.8596202846E-04       4    8    1         0.4515454681E-02      0.1183271744E-01

    ------------------------------------------------
       NWT REQUIRED            3 OUTER ITERATIONS 
       AND A TOTAL OF          5 INNER ITERATIONS.
    ------------------------------------------------

 NO OUTPUT CONTROL FOR STRESS PERIOD   48   TIME STEP    2
 
 SOLVING FOR HEAD 
                                                   Max.-Head-Change                         Max.-Flux-Residual
  Residual-Control   Outer-Iter.   Inner-Iter.     Column Row Layer    Maximum-Head-Change  Column Row Layer    Maximum-Flux-Residual          L2-NORM 
          0                 1           2             4    7     1       0.1489756608E-01       4    7    1         0.7803380103E+00      0.1915228318E+01
          0                 2           2             4    7     1       0.1121690650E-02       4    7    1         0.6037467020E-01      0.1635652683E+00
          0                 3           1             4    8     1       0.8465179462E-04       4    8    1         0.4445846730E-02      0.1172675793E-01

    ------------------------------------------------
       NWT REQUIRED            3 OUTER ITERATIONS 
       AND A TOTAL OF          5 INNER ITERATIONS.
    ------------------------------------------------

 NO OUTPUT CONTROL FOR STRESS PERIOD   48   TIME STEP    3
 
 SOLVING FOR HEAD 
                                                   Max.-Head-Change                         Max.-Flux-Residual
  Residual-Control   Outer-Iter.   Inner-Iter.     Column Row Layer    Maximum-Head-Change  Column Row Layer    Maximum-Flux-Residual          L2-NORM 
          0                 1           2             4    7     1       0.1472217735E-01       4    7    1         0.7711151899E+00      0.1895676579E+01
          0                 2           2             4    7     1       0.1108241594E-02       4    7    1         0.5966747361E-01      0.1621954651E+00
          0                 3           1             4    7     1       0.8343782865E-04       4    8    1         0.4378002028E-02      0.1162296599E-01

    ------------------------------------------------
       NWT REQUIRED            3 OUTER ITERATIONS 
       AND A TOTAL OF          5 INNER ITERATIONS.
    ------------------------------------------------

 NO OUTPUT CONTROL FOR STRESS PERIOD   48   TIME STEP    4
 
 SOLVING FOR HEAD 
                                                   Max.-Head-Change                         Max.-Flux-Residual
  Residual-Control   Outer-Iter.   Inner-Iter.     Column Row Layer    Maximum-Head-Change  Column Row Layer    Maximum-Flux-Residual          L2-NORM 
          0                 1           2             4    7     1       0.1454929581E-01       4    7    1         0.7620242876E+00      0.1876572695E+01
          0                 2           2             4    7     1       0.1094996335E-02       4    7    1         0.5897037862E-01      0.1608510071E+00
          0                 3           1             4    7     1       0.8242471886E-04       4    8    1         0.4311831324E-02      0.1152122787E-01

    ------------------------------------------------
       NWT REQUIRED            3 OUTER ITERATIONS 
       AND A TOTAL OF          5 INNER ITERATIONS.
    ------------------------------------------------

 NO OUTPUT CONTROL FOR STRESS PERIOD   48   TIME STEP    5
 
 SOLVING FOR HEAD 
                                                   Max.-Head-Change                         Max.-Flux-Residual
  Residual-Control   Outer-Iter.   Inner-Iter.     Column Row Layer    Maximum-Head-Change  Column Row Layer    Maximum-Flux-Residual          L2-NORM 
          0                 1           2             4    7     1       0.1437876782E-01       4    7    1         0.7530563656E+00      0.1857910543E+01
          0                 2           2             4    7     1       0.1081899600E-02       4    7    1         0.5828285184E-01      0.1594755178E+00
          0                 3           1             4    7     1       0.8141496492E-04       4    7    1         0.4250464460E-02      0.1141467973E-01

    ------------------------------------------------
       NWT REQUIRED            3 OUTER ITERATIONS 
       AND A TOTAL OF          5 INNER ITERATIONS.
    ------------------------------------------------

 NO OUTPUT CONTROL FOR STRESS PERIOD   48   TIME STEP    6
 
 SOLVING FOR HEAD 
                                                   Max.-Head-Change                         Max.-Flux-Residual
  Residual-Control   Outer-Iter.   Inner-Iter.     Column Row Layer    Maximum-Head-Change  Column Row Layer    Maximum-Flux-Residual          L2-NORM 
          0                 1           2             4    7     1       0.1421066777E-01       4    7    1         0.7442226488E+00      0.1839599003E+01
          0                 2           2             4    7     1       0.1069050866E-02       4    7    1         0.5760446157E-01      0.1582132961E+00
          0                 3           1             4    7     1       0.8043693933E-04       4    7    1         0.4198916123E-02      0.1131945619E-01

    ------------------------------------------------
       NWT REQUIRED            3 OUTER ITERATIONS 
       AND A TOTAL OF          5 INNER ITERATIONS.
    ------------------------------------------------

 NO OUTPUT CONTROL FOR STRESS PERIOD   48   TIME STEP    7
 
 SOLVING FOR HEAD 
                                                   Max.-Head-Change                         Max.-Flux-Residual
  Residual-Control   Outer-Iter.   Inner-Iter.     Column Row Layer    Maximum-Head-Change  Column Row Layer    Maximum-Flux-Residual          L2-NORM 
          0                 1           2             4    7     1       0.1404493173E-01       4    7    1         0.7355110622E+00      0.1821626111E+01
          0                 2           2             4    7     1       0.1056373489E-02       4    7    1         0.5693582169E-01      0.1569340344E+00
          0                 3           1             4    7     1       0.7946878799E-04       4    7    1         0.4147975460E-02      0.1122306365E-01

    ------------------------------------------------
       NWT REQUIRED            3 OUTER ITERATIONS 
       AND A TOTAL OF          5 INNER ITERATIONS.
    ------------------------------------------------

 NO OUTPUT CONTROL FOR STRESS PERIOD   48   TIME STEP    8
 
 SOLVING FOR HEAD 
                                                   Max.-Head-Change                         Max.-Flux-Residual
  Residual-Control   Outer-Iter.   Inner-Iter.     Column Row Layer    Maximum-Head-Change  Column Row Layer    Maximum-Flux-Residual          L2-NORM 
          0                 1           2             4    7     1       0.1388139300E-01       4    7    1         0.7269137247E+00      0.1804049089E+01
          0                 2           2             4    7     1       0.1043877341E-02       4    7    1         0.5627617143E-01      0.1556777171E+00
          0                 3           1             4    7     1       0.7851537345E-04       4    7    1         0.4097811208E-02      0.1112852976E-01

    ------------------------------------------------
       NWT REQUIRED            3 OUTER ITERATIONS 
       AND A TOTAL OF          5 INNER ITERATIONS.
    ------------------------------------------------

 NO OUTPUT CONTROL FOR STRESS PERIOD   48   TIME STEP    9
 
 SOLVING FOR HEAD 
                                                   Max.-Head-Change                         Max.-Flux-Residual
  Residual-Control   Outer-Iter.   Inner-Iter.     Column Row Layer    Maximum-Head-Change  Column Row Layer    Maximum-Flux-Residual          L2-NORM 
          0                 1           2             4    7     1       0.1372031379E-01       4    7    1         0.7184453079E+00      0.1786854324E+01
          0                 2           2             4    7     1       0.1031579455E-02       4    6    1        -0.5576551958E-01      0.1544434366E+00
          0                 3           1             4    7     1       0.7757779744E-04       4    7    1         0.4048484996E-02      0.1103580144E-01

    ------------------------------------------------
       NWT REQUIRED            3 OUTER ITERATIONS 
       AND A TOTAL OF          5 INNER ITERATIONS.
    ------------------------------------------------

 NO OUTPUT CONTROL FOR STRESS PERIOD   48   TIME STEP   10
 
 SOLVING FOR HEAD 
                                                   Max.-Head-Change                         Max.-Flux-Residual
  Residual-Control   Outer-Iter.   Inner-Iter.     Column Row Layer    Maximum-Head-Change  Column Row Layer    Maximum-Flux-Residual          L2-NORM 
          0                 1           2             4    7     1       0.1356153623E-01       4    7    1         0.7100973019E+00      0.1770026378E+01
          0                 2           2             4    7     1       0.1019467927E-02       4    6    1        -0.5556936158E-01      0.1532305905E+00
          0                 3           1             4    7     1       0.7665515868E-04       4    7    1         0.3999948234E-02      0.1094479596E-01

    ------------------------------------------------
       NWT REQUIRED            3 OUTER ITERATIONS 
       AND A TOTAL OF          5 INNER ITERATIONS.
    ------------------------------------------------

 NO OUTPUT CONTROL FOR STRESS PERIOD   48   TIME STEP   11
 
 SOLVING FOR HEAD 
                                                   Max.-Head-Change                         Max.-Flux-Residual
  Residual-Control   Outer-Iter.   Inner-Iter.     Column Row Layer    Maximum-Head-Change  Column Row Layer    Maximum-Flux-Residual          L2-NORM 
          0                 1           2             4    7     1       0.1340504751E-01       4    7    1         0.7018688537E+00      0.1753557463E+01
          0                 2           2             4    7     1       0.1007541274E-02       4    6    1        -0.5536050166E-01      0.1520390947E+00
          0                 3           1             4    7     1       0.7574730637E-04       4    7    1         0.3952191511E-02      0.1085551654E-01

    ------------------------------------------------
       NWT REQUIRED            3 OUTER ITERATIONS 
       AND A TOTAL OF          5 INNER ITERATIONS.
    ------------------------------------------------

 NO OUTPUT CONTROL FOR STRESS PERIOD   48   TIME STEP   12
 
 SOLVING FOR HEAD 
                                                   Max.-Head-Change                         Max.-Flux-Residual
  Residual-Control   Outer-Iter.   Inner-Iter.     Column Row Layer    Maximum-Head-Change  Column Row Layer    Maximum-Flux-Residual          L2-NORM 
          0                 1           2             4    7     1       0.1325096336E-01       4    7    1         0.6937665742E+00      0.1737427709E+01
          0                 2           2             4    7     1       0.9958065074E-03       4    6    1        -0.5513926822E-01      0.1508675008E+00
          0                 3           1             4    7     1       0.7485465255E-04       4    7    1         0.3905238751E-02      0.1076782835E-01

    ------------------------------------------------
       NWT REQUIRED            3 OUTER ITERATIONS 
       AND A TOTAL OF          5 INNER ITERATIONS.
    ------------------------------------------------

 NO OUTPUT CONTROL FOR STRESS PERIOD   48   TIME STEP   13
 
 SOLVING FOR HEAD 
                                                   Max.-Head-Change                         Max.-Flux-Residual
  Residual-Control   Outer-Iter.   Inner-Iter.     Column Row Layer    Maximum-Head-Change  Column Row Layer    Maximum-Flux-Residual          L2-NORM 
          0                 1           2             4    7     1       0.1309898899E-01       4    7    1         0.6857744422E+00      0.1721626631E+01
          0                 2           2             4    7     1       0.9842423672E-03       4    6    1        -0.5490670661E-01      0.1497153273E+00
          0                 3           1             4    7     1       0.7397565880E-04       4    6    1         0.3881557089E-02      0.1068171239E-01

    ------------------------------------------------
       NWT REQUIRED            3 OUTER ITERATIONS 
       AND A TOTAL OF          5 INNER ITERATIONS.
    ------------------------------------------------

 NO OUTPUT CONTROL FOR STRESS PERIOD   48   TIME STEP   14
 
 SOLVING FOR HEAD 
                                                   Max.-Head-Change                         Max.-Flux-Residual
  Residual-Control   Outer-Iter.   Inner-Iter.     Column Row Layer    Maximum-Head-Change  Column Row Layer    Maximum-Flux-Residual          L2-NORM 
          0                 1           2             4    7     1       0.1294938511E-01       4    7    1         0.6779064925E+00      0.1706152790E+01
          0                 2           2             4    7     1       0.9728668230E-03       4    6    1        -0.5466448117E-01      0.1485828978E+00
          0                 3           1             4    7     1       0.7311156241E-04       4    6    1         0.3864184763E-02      0.1059717379E-01

    ------------------------------------------------
       NWT REQUIRED            3 OUTER ITERATIONS 
       AND A TOTAL OF          5 INNER ITERATIONS.
    ------------------------------------------------

 NO OUTPUT CONTROL FOR STRESS PERIOD   48   TIME STEP   15
 
 SOLVING FOR HEAD 
                                                   Max.-Head-Change                         Max.-Flux-Residual
  Residual-Control   Outer-Iter.   Inner-Iter.     Column Row Layer    Maximum-Head-Change  Column Row Layer    Maximum-Flux-Residual          L2-NORM 
          0                 1           2             4    7     1       0.1280198562E-01       4    7    1         0.6701541912E+00      0.1690983271E+01
          0                 2           2             4    7     1       0.9616665897E-03       4    6    1        -0.5441273766E-01      0.1474687585E+00
          0                 3           1             4    7     1       0.7164786844E-04       4    6    1         0.3846153735E-02      0.1050598080E-01

    ------------------------------------------------
       NWT REQUIRED            3 OUTER ITERATIONS 
       AND A TOTAL OF          5 INNER ITERATIONS.
    ------------------------------------------------

 NO OUTPUT CONTROL FOR STRESS PERIOD   48   TIME STEP   16
 
 SOLVING FOR HEAD 
                                                   Max.-Head-Change                         Max.-Flux-Residual
  Residual-Control   Outer-Iter.   Inner-Iter.     Column Row Layer    Maximum-Head-Change  Column Row Layer    Maximum-Flux-Residual          L2-NORM 
          0                 1           2             4    7     1       0.1265282621E-01       4    7    1         0.6624917309E+00      0.1676106903E+01
          0                 2           2             4    6     1      -0.9516996074E-03       4    6    1        -0.5415226963E-01      0.1463607120E+00
          0                 3           1             4    7     1       0.7122923996E-04       4    6    1         0.3827485501E-02      0.1042889494E-01

    ------------------------------------------------
       NWT REQUIRED            3 OUTER ITERATIONS 
       AND A TOTAL OF          5 INNER ITERATIONS.
    ------------------------------------------------

 NO OUTPUT CONTROL FOR STRESS PERIOD   48   TIME STEP   17
 
 SOLVING FOR HEAD 
                                                   Max.-Head-Change                         Max.-Flux-Residual
  Residual-Control   Outer-Iter.   Inner-Iter.     Column Row Layer    Maximum-Head-Change  Column Row Layer    Maximum-Flux-Residual          L2-NORM 
          0                 1           2             4    7     1       0.1250555158E-01       4    7    1         0.6547292888E+00      0.1661458204E+01
          0                 2           2             4    6     1      -0.9471596180E-03       4    6    1        -0.5388423679E-01      0.1452795346E+00
          0                 3           1             4    7     1       0.7038722812E-04       4    6    1         0.3808322447E-02      0.1034844922E-01

    ------------------------------------------------
       NWT REQUIRED            3 OUTER ITERATIONS 
       AND A TOTAL OF          5 INNER ITERATIONS.
    ------------------------------------------------

 NO OUTPUT CONTROL FOR STRESS PERIOD   48   TIME STEP   18
 
 SOLVING FOR HEAD 
                                                   Max.-Head-Change                         Max.-Flux-Residual
  Residual-Control   Outer-Iter.   Inner-Iter.     Column Row Layer    Maximum-Head-Change  Column Row Layer    Maximum-Flux-Residual          L2-NORM 
          0                 1           2             4    7     1       0.1236093632E-01       4    7    1         0.6471079534E+00      0.1647094325E+01
          0                 2           2             4    6     1      -0.9424798951E-03       4    6    1        -0.5360865580E-01      0.1442158120E+00
          0                 3           1             4    7     1       0.6956094265E-04       4    6    1         0.3788639009E-02      0.1026938266E-01

    ------------------------------------------------
       NWT REQUIRED            3 OUTER ITERATIONS 
       AND A TOTAL OF          5 INNER ITERATIONS.
    ------------------------------------------------

 NO OUTPUT CONTROL FOR STRESS PERIOD   48   TIME STEP   19
 
 SOLVING FOR HEAD 
                                                   Max.-Head-Change                         Max.-Flux-Residual
  Residual-Control   Outer-Iter.   Inner-Iter.     Column Row Layer    Maximum-Head-Change  Column Row Layer    Maximum-Flux-Residual          L2-NORM 
          0                 1           2             4    7     1       0.1221865257E-01       4    7    1         0.6396095673E+00      0.1633003486E+01
          0                 2           2             4    6     1      -0.9376739835E-03       4    6    1        -0.5332627644E-01      0.1431685149E+00
          0                 3           1             4    7     1       0.6874884297E-04       4    6    1         0.3768486980E-02      0.1019163249E-01

    ------------------------------------------------
       NWT REQUIRED            3 OUTER ITERATIONS 
       AND A TOTAL OF          5 INNER ITERATIONS.
    ------------------------------------------------

 NO OUTPUT CONTROL FOR STRESS PERIOD   48   TIME STEP   20
 
 SOLVING FOR HEAD 
                                                   Max.-Head-Change                         Max.-Flux-Residual
  Residual-Control   Outer-Iter.   Inner-Iter.     Column Row Layer    Maximum-Head-Change  Column Row Layer    Maximum-Flux-Residual          L2-NORM 
          0                 1           2             4    7     1       0.1207905804E-01       4    7    1         0.6322538384E+00      0.1619190213E+01
          0                 2           2             4    6     1      -0.9327541151E-03       4    6    1        -0.5303776310E-01      0.1421387389E+00
          0                 3           1             4    7     1       0.6795253743E-04       4    6    1         0.3747912997E-02      0.1011527340E-01

    ------------------------------------------------
       NWT REQUIRED            3 OUTER ITERATIONS 
       AND A TOTAL OF          5 INNER ITERATIONS.
    ------------------------------------------------

 NO OUTPUT CONTROL FOR STRESS PERIOD   48   TIME STEP   21
 
 SOLVING FOR HEAD 
                                                   Max.-Head-Change                         Max.-Flux-Residual
  Residual-Control   Outer-Iter.   Inner-Iter.     Column Row Layer    Maximum-Head-Change  Column Row Layer    Maximum-Flux-Residual          L2-NORM 
          0                 1           2             4    7     1       0.1194181349E-01       4    7    1         0.6250225612E+00      0.1605632035E+01
          0                 2           2             4    6     1      -0.9277319004E-03       4    6    1        -0.5274378019E-01      0.1411247226E+00
          0                 3           1             4    7     1       0.6717018958E-04       4    6    1         0.3726963123E-02      0.1004014587E-01

    ------------------------------------------------
       NWT REQUIRED            3 OUTER ITERATIONS 
       AND A TOTAL OF          5 INNER ITERATIONS.
    ------------------------------------------------

 NO OUTPUT CONTROL FOR STRESS PERIOD   48   TIME STEP   22
 
 SOLVING FOR HEAD 
                                                   Max.-Head-Change                         Max.-Flux-Residual
  Residual-Control   Outer-Iter.   Inner-Iter.     Column Row Layer    Maximum-Head-Change  Column Row Layer    Maximum-Flux-Residual          L2-NORM 
          0                 1           2             4    7     1       0.1180687353E-01       4    7    1         0.6179128583E+00      0.1592332604E+01
          0                 2           2             4    6     1      -0.9226183018E-03       4    6    1        -0.5244491075E-01      0.1401269305E+00
          0                 3           1             4    7     1       0.6640167588E-04       4    6    1         0.3705677991E-02      0.9966301760E-02

    ------------------------------------------------
       NWT REQUIRED            3 OUTER ITERATIONS 
       AND A TOTAL OF          5 INNER ITERATIONS.
    ------------------------------------------------

 NO OUTPUT CONTROL FOR STRESS PERIOD   48   TIME STEP   23
 
 SOLVING FOR HEAD 
                                                   Max.-Head-Change                         Max.-Flux-Residual
  Residual-Control   Outer-Iter.   Inner-Iter.     Column Row Layer    Maximum-Head-Change  Column Row Layer    Maximum-Flux-Residual          L2-NORM 
          0                 1           2             4    7     1       0.1167432421E-01       4    7    1         0.6109297423E+00      0.1579279370E+01
          0                 2           2             4    6     1      -0.9174360042E-03       4    6    1        -0.5214245404E-01      0.1391447521E+00
          0                 3           1             4    6     1       0.6591005004E-04       4    6    1         0.3684148545E-02      0.9893685074E-02

    ------------------------------------------------
       NWT REQUIRED            3 OUTER ITERATIONS 
       AND A TOTAL OF          5 INNER ITERATIONS.
    ------------------------------------------------

 NO OUTPUT CONTROL FOR STRESS PERIOD   48   TIME STEP   24
 
 SOLVING FOR HEAD 
                                                   Max.-Head-Change                         Max.-Flux-Residual
  Residual-Control   Outer-Iter.   Inner-Iter.     Column Row Layer    Maximum-Head-Change  Column Row Layer    Maximum-Flux-Residual          L2-NORM 
          0                 1           2             4    7     1       0.1154411054E-01       4    7    1         0.6040702504E+00      0.1566466805E+01
          0                 2           2             4    6     1      -0.9121680045E-03       4    6    1        -0.5183542489E-01      0.1381777729E+00
          0                 3           1             4    6     1       0.6551583733E-04       4    6    1         0.3662305336E-02      0.9822254274E-02

    ------------------------------------------------
       NWT REQUIRED            3 OUTER ITERATIONS 
       AND A TOTAL OF          5 INNER ITERATIONS.
    ------------------------------------------------

 NO OUTPUT CONTROL FOR STRESS PERIOD   48   TIME STEP   25
 
 SOLVING FOR HEAD 
                                                   Max.-Head-Change                         Max.-Flux-Residual
  Residual-Control   Outer-Iter.   Inner-Iter.     Column Row Layer    Maximum-Head-Change  Column Row Layer    Maximum-Flux-Residual          L2-NORM 
          0                 1           2             4    7     1       0.1141604601E-01       4    7    1         0.5973242580E+00      0.1553889433E+01
          0                 2           2             4    6     1      -0.9068496059E-03       4    6    1        -0.5152580424E-01      0.1372258797E+00
          0                 3           1             4    6     1       0.6511882076E-04       4    6    1         0.3640286923E-02      0.9752012126E-02

    ------------------------------------------------
       NWT REQUIRED            3 OUTER ITERATIONS 
       AND A TOTAL OF          5 INNER ITERATIONS.
    ------------------------------------------------

 NO OUTPUT CONTROL FOR STRESS PERIOD   48   TIME STEP   26
 
 SOLVING FOR HEAD 
                                                   Max.-Head-Change                         Max.-Flux-Residual
  Residual-Control   Outer-Iter.   Inner-Iter.     Column Row Layer    Maximum-Head-Change  Column Row Layer    Maximum-Flux-Residual          L2-NORM 
          0                 1           2             4    7     1       0.1129022164E-01       4    7    1         0.5906967471E+00      0.1541538551E+01
          0                 2           2             4    6     1      -0.9014747952E-03       4    6    1        -0.5121326753E-01      0.1362884414E+00
          0                 3           1             4    6     1       0.6471859679E-04       4    6    1         0.3618070611E-02      0.9682889917E-02

    ------------------------------------------------
       NWT REQUIRED            3 OUTER ITERATIONS 
       AND A TOTAL OF          5 INNER ITERATIONS.
    ------------------------------------------------

 NO OUTPUT CONTROL FOR STRESS PERIOD   48   TIME STEP   27
 
 SOLVING FOR HEAD 
                                                   Max.-Head-Change                         Max.-Flux-Residual
  Residual-Control   Outer-Iter.   Inner-Iter.     Column Row Layer    Maximum-Head-Change  Column Row Layer    Maximum-Flux-Residual          L2-NORM 
          0                 1           2             4    7     1       0.1116658483E-01       4    7    1         0.5841850875E+00      0.1529408208E+01
          0                 2           2             4    6     1      -0.8960514978E-03       4    6    1        -0.5089823069E-01      0.1353652368E+00
          0                 3           1             4    6     1       0.6431568066E-04       4    6    1         0.3595685278E-02      0.9614887649E-02

    ------------------------------------------------
       NWT REQUIRED            3 OUTER ITERATIONS 
       AND A TOTAL OF          5 INNER ITERATIONS.
    ------------------------------------------------

 NO OUTPUT CONTROL FOR STRESS PERIOD   48   TIME STEP   28
 
 SOLVING FOR HEAD 
                                                   Max.-Head-Change                         Max.-Flux-Residual
  Residual-Control   Outer-Iter.   Inner-Iter.     Column Row Layer    Maximum-Head-Change  Column Row Layer    Maximum-Flux-Residual          L2-NORM 
          0                 1           2             4    7     1       0.1104508737E-01       4    7    1         0.5777865252E+00      0.1517495745E+01
          0                 2           2             4    6     1      -0.8905867549E-03       4    6    1        -0.5058109924E-01      0.1344562302E+00
          0                 3           1             4    6     1       0.6391053767E-04       4    6    1         0.3573159192E-02      0.9548161026E-02

    ------------------------------------------------
       NWT REQUIRED            3 OUTER ITERATIONS 
       AND A TOTAL OF          5 INNER ITERATIONS.
    ------------------------------------------------

 NO OUTPUT CONTROL FOR STRESS PERIOD   48   TIME STEP   29
 
 SOLVING FOR HEAD 
                                                   Max.-Head-Change                         Max.-Flux-Residual
  Residual-Control   Outer-Iter.   Inner-Iter.     Column Row Layer    Maximum-Head-Change  Column Row Layer    Maximum-Flux-Residual          L2-NORM 
          0                 1           2             4    7     1       0.1092554704E-01       4    7    1         0.5714912778E+00      0.1505793479E+01
          0                 2           2             4    6     1      -0.8850875295E-03       4    6    1        -0.5026223497E-01      0.1335611926E+00
          0                 3           1             4    6     1       0.6350360272E-04       4    6    1         0.3550517278E-02      0.9482167727E-02

    ------------------------------------------------
       NWT REQUIRED            3 OUTER ITERATIONS 
       AND A TOTAL OF          5 INNER ITERATIONS.
    ------------------------------------------------

 NO OUTPUT CONTROL FOR STRESS PERIOD   48   TIME STEP   30



 STREAM LISTING     PERIOD     48   STEP       30

 LAYER ROW COL. STREAM  RCH.  FLOW INTO     FLOW TO   FLOW OUT OF   OVRLND.     DIRECT     STREAM       STREAM     STREAM     STREAM   STREAMBED  STREAMBED
                SEG.NO.  NO.  STRM. RCH.    AQUIFER    STRM. RCH.    RUNOFF     PRECIP       ET          HEAD       DEPTH      WIDTH   CONDCTNC.   GRADIENT

   1    1    1     1     1    7.8748E+00  1.2804E-01   7.7467E+00  0.000E+00  0.000E+00  0.000E+00  1.09388E+03  8.295E-01  7.430E+00  3.344E-02  1.276E+00
   1    2    2     1     2    7.7467E+00  1.9662E-01   7.5501E+00  0.000E+00  0.000E+00  0.000E+00  1.08888E+03  8.237E-01  7.346E+00  5.142E-02  1.275E+00
   1    3    3     1     3    7.5501E+00  1.6606E-01   7.3840E+00  0.000E+00  0.000E+00  0.000E+00  1.08324E+03  8.172E-01  7.251E+00  4.350E-02  1.272E+00
   1    3    4     1     4    7.3840E+00  1.5159E-01   7.2324E+00  0.000E+00  0.000E+00  0.000E+00  1.07822E+03  8.115E-01  7.166E+00  3.977E-02  1.270E+00
   1    4    5     2     1    5.2324E+00  2.7028E-01   4.9622E+00  0.000E+00  0.000E+00  0.000E+00  1.07240E+03  4.651E-01  1.200E+01  7.800E-02  1.155E+00
   1    5    6     2     2    4.9622E+00  2.0711E-01   4.7551E+00  0.000E+00  0.000E+00  0.000E+00  1.06696E+03  4.519E-01  1.200E+01  6.000E-02  1.151E+00
   1    6    6     2     3    4.7551E+00  2.0642E-01   4.5486E+00  0.000E+00  0.000E+00  0.000E+00  1.06223E+03  4.403E-01  1.200E+01  6.000E-02  1.147E+00
   1    7    6     2     4    4.5486E+00  2.0571E-01   4.3429E+00  0.000E+00  0.000E+00  0.000E+00  1.05750E+03  4.285E-01  1.200E+01  6.000E-02  1.143E+00
   1    8    6     2     5    4.3429E+00  2.0499E-01   4.1379E+00  0.000E+00  0.000E+00  0.000E+00  1.05278E+03  4.165E-01  1.200E+01  6.000E-02  1.139E+00
   1    3    5     3     1    2.0000E+00  2.8252E-01   1.7175E+00  0.000E+00  0.000E+00  0.000E+00  1.07555E+03  1.909E+00  9.636E+00  7.227E-02  1.955E+00
   1    3    6     3     2    1.7175E+00  2.4905E-01   1.4684E+00  0.000E+00  0.000E+00  0.000E+00  1.07264E+03  1.727E+00  8.909E+00  6.682E-02  1.864E+00
   1    3    7     3     3    1.4684E+00  1.9718E-01   1.2712E+00  0.000E+00  0.000E+00  0.000E+00  1.06987E+03  1.555E+00  8.218E+00  5.547E-02  1.777E+00
   1    4    8     3     4    1.2712E+00  2.2567E-01   1.0456E+00  0.000E+00  0.000E+00  0.000E+00  1.06682E+03  1.364E+00  7.455E+00  6.709E-02  1.682E+00
   1    5    8     3     5    1.0456E+00  1.5790E-01   8.8768E-01  0.000E+00  0.000E+00  0.000E+00  1.06362E+03  1.164E+00  6.655E+00  4.991E-02  1.582E+00
   1    6    8     3     6    8.8768E-01  5.5980E-02   8.3170E-01  0.000E+00  0.000E+00  0.000E+00  1.06158E+03  1.036E+00  6.145E+00  1.844E-02  1.518E+00
   1    5   10     4     1    1.0000E+01  9.0919E-02   9.9091E+00  0.000E+00  0.000E+00  0.000E+00  1.07836E+03  6.368E-01  1.000E+01  2.500E-02  1.212E+00
   1    5    9     4     2    9.9091E+00  1.8158E-01   9.7275E+00  0.000E+00  0.000E+00  0.000E+00  1.07154E+03  6.315E-01  1.000E+01  5.000E-02  1.211E+00
   1    6    8     4     3    9.7275E+00  1.2689E-01   9.6006E+00  0.000E+00  0.000E+00  0.000E+00  1.06381E+03  6.256E-01  1.000E+01  3.500E-02  1.209E+00
   1    6    8     5     1    1.0432E+01  2.2686E-01   1.0205E+01  0.000E+00  0.000E+00  0.000E+00  1.05868E+03  6.790E-01  1.542E+01  6.166E-02  1.226E+00
   1    7    7     5     2    1.0205E+01  2.7894E-01   9.9265E+00  0.000E+00  0.000E+00  0.000E+00  1.05417E+03  6.732E-01  1.519E+01  7.594E-02  1.224E+00
   1    8    7     5     3    9.9265E+00  1.9221E-01   9.7343E+00  0.000E+00  0.000E+00  0.000E+00  1.04992E+03  6.676E-01  1.497E+01  5.241E-02  1.223E+00
   1    8    6     5     4    9.7343E+00  1.3577E-01   9.5985E+00  0.000E+00  0.000E+00  0.000E+00  1.04691E+03  6.637E-01  1.482E+01  3.706E-02  1.221E+00
   1    9    6     6     1    1.3736E+01  2.3089E-01   1.3506E+01  0.000E+00  0.000E+00  0.000E+00  1.04358E+03  8.482E-01  1.200E+01  6.000E-02  1.283E+00
   1   10    7     6     2    1.3506E+01  2.3037E-01   1.3275E+01  0.000E+00  0.000E+00  0.000E+00  1.03902E+03  8.396E-01  1.200E+01  6.000E-02  1.280E+00
   1   11    7     6     3    1.3275E+01  2.2985E-01   1.3045E+01  0.000E+00  0.000E+00  0.000E+00  1.03447E+03  8.309E-01  1.200E+01  6.000E-02  1.277E+00
   1   12    7     6     4    1.3045E+01  2.2933E-01   1.2816E+01  0.000E+00  0.000E+00  0.000E+00  1.02991E+03  8.221E-01  1.200E+01  6.000E-02  1.274E+00
   1   13    7     6     5    1.2816E+01  7.7044E-03   1.2808E+01  0.000E+00  0.000E+00  0.000E+00  1.02673E+03  8.176E-01  1.200E+01  2.400E-02  1.070E-01
   1   14    9     7     1    1.5000E+02  1.4106E+00   1.4859E+02  0.000E+00  0.000E+00  0.000E+00  1.03987E+03  2.288E+00  5.529E+01  5.593E-01  8.407E-01
   1   13    8     7     2    1.4859E+02  2.0584E+00   1.4653E+02  0.000E+00  0.000E+00  0.000E+00  1.03478E+03  2.278E+00  5.525E+01  6.147E-01  1.116E+00
   1   13    7     7     3    1.4653E+02  1.8322E+00   1.4470E+02  0.000E+00  0.000E+00  0.000E+00  1.02969E+03  2.268E+00  5.521E+01  5.583E-01  1.094E+00
   1   13    6     8     1    1.5751E+02  1.1974E+00   1.5631E+02  0.000E+00  0.000E+00  0.000E+00  1.02474E+03  2.865E+00  4.154E+01  4.233E-01  9.429E-01
   1   13    5     8     2    1.5631E+02  4.3570E-01   1.5587E+02  0.000E+00  0.000E+00  0.000E+00  1.01848E+03  2.859E+00  4.146E+01  4.225E-01  3.438E-01
   1   13    4     8     3    1.5587E+02 -1.5445E+00   1.5742E+02  0.000E+00  0.000E+00  0.000E+00  1.01224E+03  2.863E+00  4.151E+01  4.230E+00 -1.217E-01
   1   13    3     8     4    1.5742E+02 -3.1984E+00   1.6062E+02  0.000E+00  0.000E+00  0.000E+00  1.00600E+03  2.879E+00  4.175E+01  4.254E+00 -2.506E-01
   1   13    2     8     5    1.6062E+02 -2.4598E+00   1.6308E+02  0.000E+00  0.000E+00  0.000E+00  9.99773E+02  2.898E+00  4.203E+01  4.283E+00 -1.915E-01
   1   13    1     8     6    1.6308E+02 -1.9457E+00   1.6502E+02  0.000E+00  0.000E+00  0.000E+00  9.94788E+02  2.913E+00  4.224E+01  2.583E+00 -2.511E-01
   1    8    6     9     1    0.0000E+00  0.0000E+00   0.0000E+00  0.000E+00  0.000E+00  0.000E+00  1.07875E+03  0.000E+00  4.000E+00  0.000E+00  1.000E+00
   1    8    5     9     2    0.0000E+00  0.0000E+00   0.0000E+00  0.000E+00  0.000E+00  0.000E+00  1.07825E+03  0.000E+00  4.000E+00  0.000E+00  1.000E+00





UNSATURATED ZONE PACKAGE VOLUMETRIC BUDGET FOR  TIME STEP    30 STRESS PERIOD   48
  ------------------------------------------------------------------------------



     CUMULATIVE VOLUMES      L**3       RATES FOR THIS TIME STEP      L**3/T
     ------------------                 ------------------------

           IN:                                      IN:
           ---                                      ---
        INFILTRATION =  2188172243.5408          INFILTRATION =           0.8475

          OUT:                                     OUT:
          ----                                     ----
              UZF ET =  1704203282.0586                UZF ET =           0.7500
        UZF RECHARGE =   228550767.3544          UZF RECHARGE =           0.4840

            IN - OUT =   255418194.1278              IN - OUT =          -0.3865

          STORAGE:                                 STORAGE:
          --------                                 --------
      STORAGE CHANGE =   255418441.7306        STORAGE CHANGE =          -0.3865

 PERCENT DISCREPANCY IS DIFFERENCE BETWEEN IN-OUT MINUS CHANGE IN STORAGE
 DIVIDED BY THE AVERAGE OF IN AND OUT TIMES 100

 PERCENT DISCREPANCY =          -0.00     PERCENT DISCREPANCY =           0.00






1
  VOLUMETRIC BUDGET FOR AGRICULTURAL FIELDS AT  END OF TIME STEP   30, STRESS PERIOD  48
  ------------------------------------------------------------------------------

     CUMULATIVE VOLUMES      L**3       RATES FOR THIS TIME STEP      L**3/T
     ------------------                 ------------------------

           IN:                                      IN:
           ---                                      ---
               AG WELLS  =  1347940992.0000                 AG WELLS  =           0.0000
      DIVERSION SEGMENTS =   735501696.0000        DIVERSION SEGMENTS =           0.0000
       IRRIGATION PONDS  =           0.0000         IRRIGATION PONDS  =           0.0000
           GW IRRIGATION =           0.0000             GW IRRIGATION =           0.0000
           SW IRRIGATION =           0.0000             SW IRRIGATION =           0.0000
        SYSTEM LOSSES GW =           0.0000          SYSTEM LOSSES GW =           0.0000
        SYSTEM LOSSES SW =           0.0000          SYSTEM LOSSES SW =           0.0000

                TOTAL IN =  2083442688.0000                  TOTAL IN =           0.0000

          OUT:                                     OUT:
          ----                                     ----
               AG WELLS  =           0.0000                 AG WELLS  =           0.0000
      DIVERSION SEGMENTS =           0.0000        DIVERSION SEGMENTS =           0.0000
       IRRIGATION PONDS  =           0.0000         IRRIGATION PONDS  =           0.0000
           GW IRRIGATION =  1347940992.0000             GW IRRIGATION =           0.0000
           SW IRRIGATION =   735514688.0000             SW IRRIGATION =           0.0000
        SYSTEM LOSSES GW =           0.0000          SYSTEM LOSSES GW =           0.0000
        SYSTEM LOSSES SW =           0.0000          SYSTEM LOSSES SW =           0.0000

               TOTAL OUT =  2083455744.0000                 TOTAL OUT =           0.0000

                IN - OUT =      -13056.0000                  IN - OUT =           0.0000

     PERCENT DISCREPANCY =          -0.00         PERCENT DISCREPANCY =           0.00



1
  VOLUMETRIC BUDGET FOR ENTIRE MODEL AT END OF TIME STEP   30, STRESS PERIOD  48
  ------------------------------------------------------------------------------

     CUMULATIVE VOLUMES      L**3       RATES FOR THIS TIME STEP      L**3/T
     ------------------                 ------------------------

           IN:                                      IN:
           ---                                      ---
             STORAGE     =  1937408128.0000               STORAGE     =           2.9286
       CONSTANT HEAD     =           0.0000         CONSTANT HEAD     =           0.0000
     HEAD DEP BOUNDS     =    35745912.0000       HEAD DEP BOUNDS     =           0.2908
      STREAM LEAKAGE     =  1490675072.0000        STREAM LEAKAGE     =          12.0007
        UZF RECHARGE     =   228550816.0000          UZF RECHARGE     =           0.4840
               GW ET     =           0.0000                 GW ET     =           0.0000
     SURFACE LEAKAGE     =           0.0000       SURFACE LEAKAGE     =           0.0000
           AG WELLS      =           0.0000             AG WELLS      =           0.0000

                TOTAL IN =  3692379904.0000                  TOTAL IN =          15.7042

          OUT:                                     OUT:
          ----                                     ----
             STORAGE     =  1105613568.0000               STORAGE     =           6.2683
       CONSTANT HEAD     =           0.0000         CONSTANT HEAD     =           0.0000
     HEAD DEP BOUNDS     =    35580760.0000       HEAD DEP BOUNDS     =           0.2866
      STREAM LEAKAGE     =  1203215616.0000        STREAM LEAKAGE     =           9.1484
        UZF RECHARGE     =           0.0000          UZF RECHARGE     =           0.0000
               GW ET     =           0.0000                 GW ET     =           0.0000
     SURFACE LEAKAGE     =           0.0000       SURFACE LEAKAGE     =           0.0000
           AG WELLS      =  1347940992.0000             AG WELLS      =           0.0000

               TOTAL OUT =  3692350976.0000                 TOTAL OUT =          15.7033

                IN - OUT =       28928.0000                  IN - OUT =       9.3937E-04

     PERCENT DISCREPANCY =           0.00         PERCENT DISCREPANCY =           0.01






         TIME SUMMARY AT END OF TIME STEP   30 IN STRESS PERIOD   48
                    SECONDS     MINUTES      HOURS       DAYS        YEARS
                    -----------------------------------------------------------
   TIME STEP LENGTH  87667.      1461.1      24.352      1.0147     2.77799E-03
 STRESS PERIOD TIME 2.63000E+06  43833.      730.56      30.440     8.33397E-02
         TOTAL TIME 1.23695E+08 2.06158E+06  34360.      1431.7      3.9197    
1
1
                            STRESS PERIOD NO.   49, LENGTH =   2630000.    
                            -----------------------------------------------

                              NUMBER OF TIME STEPS =    30

                               MULTIPLIER FOR DELT =     1.000

                            INITIAL TIME STEP SIZE =   87666.66    

 REUSING NON-PARAMETER GHB CELLS FROM LAST STRESS PERIOD

      2 GHB CELLS

 REUSING STREAM SEGMENT DATA FROM LAST STRESS PERIOD



            AREAL INFILTRATION RATE
 READING ON UNIT   19 WITH FORMAT: (FREE)              

            1           2           3           4           5           6           7           8           9          10
 ........................................................................................................................
   1   1.0000E-10  2.0000E-10   0.000       0.000       0.000       0.000       0.000       0.000       0.000       0.000    
   2   2.0000E-10  1.0000E-10  2.0000E-10   0.000       0.000      8.0000E-10  8.0000E-10  5.0000E-10   0.000       0.000    
   3    0.000      5.0000E-10  1.0000E-10  1.0000E-10  8.0000E-10  8.0000E-10  5.0000E-10  5.0000E-10   0.000       0.000    
   4   8.0000E-10  5.0000E-10  1.0000E-10  1.0000E-10  1.0000E-10  1.0000E-10  1.0000E-10  1.0000E-10  2.0000E-10   0.000    
   5   8.0000E-10  5.0000E-10  1.0000E-10  1.0000E-10  1.0000E-10  1.0000E-10  1.0000E-10  1.0000E-10  1.0000E-10  1.0000E-10
   6   8.0000E-10  5.0000E-10  5.0000E-10  2.0000E-10  2.0000E-10  1.0000E-10  1.0000E-10  1.0000E-10  1.0000E-10  5.0000E-10
   7   8.0000E-10  5.0000E-10  5.0000E-10  2.0000E-10  2.0000E-10  1.0000E-10  1.0000E-10  2.0000E-10  2.0000E-10   0.000    
   8    0.000      5.0000E-10  5.0000E-10  2.0000E-10  2.0000E-10  1.0000E-10  1.0000E-10  2.0000E-10  5.0000E-10   0.000    
   9    0.000      5.0000E-10  5.0000E-10  2.0000E-10  2.0000E-10  1.0000E-10  1.0000E-10  2.0000E-10  5.0000E-10   0.000    
  10    0.000      5.0000E-10  5.0000E-10  2.0000E-10  2.0000E-10  1.0000E-10  1.0000E-10  2.0000E-10  5.0000E-10  8.0000E-10
  11    0.000      1.0000E-10  1.0000E-10  1.0000E-10  1.0000E-10  1.0000E-10  1.0000E-10  2.0000E-10  5.0000E-10   0.000    
  12   1.0000E-10  1.0000E-10  1.0000E-10  1.0000E-10  1.0000E-10  1.0000E-10  1.0000E-10  1.0000E-10  2.0000E-10   0.000    
  13   1.0000E-10  1.0000E-10  2.0000E-10  2.0000E-10  2.0000E-10  2.0000E-10  2.0000E-10  1.0000E-10  1.0000E-10   0.000    
  14    0.000      2.0000E-10  5.0000E-10  5.0000E-10  5.0000E-10  5.0000E-10  5.0000E-10  2.0000E-10  1.0000E-10   0.000    
  15    0.000       0.000      8.0000E-10  8.0000E-10  8.0000E-10  8.0000E-10   0.000       0.000       0.000       0.000    

                  ET RATE =  5.000000E-10

 USING ET EXTINCTION DEPTH FROM PREVIOUS STRESS PERIOD. CURRENT PERIOD IS:      49

 USING EXTINCTION WATER CONTENT FROM PREVIOUS STRESS PERIOD. CURRENT PERIOD IS:      49

 USING AIR ENTRY PRESSURE FROM PREVIOUS STRESS PERIOD. CURRENT PERIOD IS:      49

 USING ROOT PRESSURE HEAD FROM PREVIOUS STRESS PERIOD. CURRENT PERIOD IS:      49

 USING ROOT ACTIVITY FROM PREVIOUS STRESS PERIOD. CURRENT PERIOD IS:      49

 PROCESSING AG STRESS PERIOD DATA

 READING AG STRESS PERIOD DATA

 READING IRRIGATION SEGMENT

 READING IRRIGATION WELL

 READING SUPPLEMENTAL WELL

 NO IRRPOND OR REUSING IRRPOND DATA FROM LAST STRESS PERIOD

 END PROCESSING AG STRESS PERIOD DATA OPTIONS
 
 SOLVING FOR HEAD 
                                                   Max.-Head-Change                         Max.-Flux-Residual
  Residual-Control   Outer-Iter.   Inner-Iter.     Column Row Layer    Maximum-Head-Change  Column Row Layer    Maximum-Flux-Residual          L2-NORM 
          0                 1           2             4    7     1       0.1080819354E-01       4    7    1         0.5653118619E+00      0.1494294275E+01
          0                 2           2             4    6     1      -0.8795595594E-03       4    6    1        -0.4994197715E-01      0.1326790467E+00
          0                 3           1             4    6     1       0.6309527150E-04       4    6    1         0.3527783327E-02      0.9417358492E-02

    ------------------------------------------------
       NWT REQUIRED            3 OUTER ITERATIONS 
       AND A TOTAL OF          5 INNER ITERATIONS.
    ------------------------------------------------

 NO OUTPUT CONTROL FOR STRESS PERIOD   49   TIME STEP    1
 
 SOLVING FOR HEAD 
                                                   Max.-Head-Change                         Max.-Flux-Residual
  Residual-Control   Outer-Iter.   Inner-Iter.     Column Row Layer    Maximum-Head-Change  Column Row Layer    Maximum-Flux-Residual          L2-NORM 
          0                 1           2             4    7     1       0.1069270765E-01       4    7    1         0.5592308671E+00      0.1482996815E+01
          0                 2           2             4    7     1       0.8127426561E-03       4    7    1         0.4341943909E-01      0.1222189450E+00
          0                 3           1             4    7     1       0.6069390940E-04       4    7    1         0.3215840391E-02      0.8734443508E-02

    ------------------------------------------------
       NWT REQUIRED            3 OUTER ITERATIONS 
       AND A TOTAL OF          5 INNER ITERATIONS.
    ------------------------------------------------

 NO OUTPUT CONTROL FOR STRESS PERIOD   49   TIME STEP    2
 
 SOLVING FOR HEAD 
                                                   Max.-Head-Change                         Max.-Flux-Residual
  Residual-Control   Outer-Iter.   Inner-Iter.     Column Row Layer    Maximum-Head-Change  Column Row Layer    Maximum-Flux-Residual          L2-NORM 
          0                 1           2             4    7     1       0.1059018594E-01       4    7    1         0.5538383145E+00      0.1472749124E+01
          0                 2           2             4    7     1       0.8159903831E-03       4    7    1         0.4300619980E-01      0.1271454007E+00
          0                 3           1             4    7     1       0.6276249592E-04       4    7    1         0.3285470672E-02      0.9173177416E-02

    ------------------------------------------------
       NWT REQUIRED            3 OUTER ITERATIONS 
       AND A TOTAL OF          5 INNER ITERATIONS.
    ------------------------------------------------

 NO OUTPUT CONTROL FOR STRESS PERIOD   49   TIME STEP    3
 
 SOLVING FOR HEAD 
                                                   Max.-Head-Change                         Max.-Flux-Residual
  Residual-Control   Outer-Iter.   Inner-Iter.     Column Row Layer    Maximum-Head-Change  Column Row Layer    Maximum-Flux-Residual          L2-NORM 
          0                 1           2             4    7     1       0.1050006430E-01       4    7    1         0.5491949643E+00      0.1461730892E+01
          0                 2           2             4    7     1       0.8087733819E-03       4    7    1         0.4263324312E-01      0.1263485067E+00
          0                 3           1             4    7     1       0.6219005477E-04       4    7    1         0.3255726728E-02      0.9112676788E-02

    ------------------------------------------------
       NWT REQUIRED            3 OUTER ITERATIONS 
       AND A TOTAL OF          5 INNER ITERATIONS.
    ------------------------------------------------

 NO OUTPUT CONTROL FOR STRESS PERIOD   49   TIME STEP    4
 
 SOLVING FOR HEAD 
                                                   Max.-Head-Change                         Max.-Flux-Residual
  Residual-Control   Outer-Iter.   Inner-Iter.     Column Row Layer    Maximum-Head-Change  Column Row Layer    Maximum-Flux-Residual          L2-NORM 
          0                 1           2             4    7     1       0.1040921686E-01       4    7    1         0.5445034239E+00      0.1450934078E+01
          0                 2           2             4    7     1       0.8015328274E-03       4    7    1         0.4225836246E-01      0.1255666281E+00
          0                 3           1             4    7     1       0.6161786661E-04       4    7    1         0.3225955560E-02      0.9053282112E-02

    ------------------------------------------------
       NWT REQUIRED            3 OUTER ITERATIONS 
       AND A TOTAL OF          5 INNER ITERATIONS.
    ------------------------------------------------

 NO OUTPUT CONTROL FOR STRESS PERIOD   49   TIME STEP    5
 
 SOLVING FOR HEAD 
                                                   Max.-Head-Change                         Max.-Flux-Residual
  Residual-Control   Outer-Iter.   Inner-Iter.     Column Row Layer    Maximum-Head-Change  Column Row Layer    Maximum-Flux-Residual          L2-NORM 
          0                 1           2             4    7     1       0.1031799799E-01       4    7    1         0.5397834283E+00      0.1440027474E+01
          0                 2           2             4    7     1       0.7942922777E-03       4    7    1         0.4188287671E-01      0.1247635539E+00
          0                 3           1             4    7     1       0.6104750863E-04       4    7    1         0.3196244358E-02      0.8992549389E-02

    ------------------------------------------------
       NWT REQUIRED            3 OUTER ITERATIONS 
       AND A TOTAL OF          5 INNER ITERATIONS.
    ------------------------------------------------

 NO OUTPUT CONTROL FOR STRESS PERIOD   49   TIME STEP    6
 
 SOLVING FOR HEAD 
                                                   Max.-Head-Change                         Max.-Flux-Residual
  Residual-Control   Outer-Iter.   Inner-Iter.     Column Row Layer    Maximum-Head-Change  Column Row Layer    Maximum-Flux-Residual          L2-NORM 
          0                 1           2             4    7     1       0.1022646014E-01       4    7    1         0.5350384913E+00      0.1429320492E+01
          0                 2           2             4    7     1       0.7870537763E-03       4    7    1         0.4150692179E-01      0.1239736350E+00
          0                 3           1             4    7     1       0.6047900948E-04       4    7    1         0.3166598148E-02      0.8932847979E-02

    ------------------------------------------------
       NWT REQUIRED            3 OUTER ITERATIONS 
       AND A TOTAL OF          5 INNER ITERATIONS.
    ------------------------------------------------

 NO OUTPUT CONTROL FOR STRESS PERIOD   49   TIME STEP    7
 
 SOLVING FOR HEAD 
                                                   Max.-Head-Change                         Max.-Flux-Residual
  Residual-Control   Outer-Iter.   Inner-Iter.     Column Row Layer    Maximum-Head-Change  Column Row Layer    Maximum-Flux-Residual          L2-NORM 
          0                 1           2             4    7     1       0.1013477764E-01       4    7    1         0.5302785218E+00      0.1418812595E+01
          0                 2           2             4    7     1       0.7798280006E-03       4    7    1         0.4113112634E-01      0.1231970333E+00
          0                 3           1             4    7     1       0.5991302057E-04       4    7    1         0.3137053659E-02      0.8874183940E-02

    ------------------------------------------------
       NWT REQUIRED            3 OUTER ITERATIONS 
       AND A TOTAL OF          5 INNER ITERATIONS.
    ------------------------------------------------

 NO OUTPUT CONTROL FOR STRESS PERIOD   49   TIME STEP    8
 
 SOLVING FOR HEAD 
                                                   Max.-Head-Change                         Max.-Flux-Residual
  Residual-Control   Outer-Iter.   Inner-Iter.     Column Row Layer    Maximum-Head-Change  Column Row Layer    Maximum-Flux-Residual          L2-NORM 
          0                 1           2             4    7     1       0.1004323888E-01       4    7    1         0.5255196918E+00      0.1408488955E+01
          0                 2           2             4    7     1       0.7726340546E-03       4    7    1         0.4075655253E-01      0.1224325077E+00
          0                 3           1             4    7     1       0.5935080334E-04       4    7    1         0.3107681980E-02      0.8816459956E-02

    ------------------------------------------------
       NWT REQUIRED            3 OUTER ITERATIONS 
       AND A TOTAL OF          5 INNER ITERATIONS.
    ------------------------------------------------

 NO OUTPUT CONTROL FOR STRESS PERIOD   49   TIME STEP    9
 
 SOLVING FOR HEAD 
                                                   Max.-Head-Change                         Max.-Flux-Residual
  Residual-Control   Outer-Iter.   Inner-Iter.     Column Row Layer    Maximum-Head-Change  Column Row Layer    Maximum-Flux-Residual          L2-NORM 
          0                 1           2             4    7     1       0.9951835875E-02       4    7    1         0.5207621351E+00      0.1398345245E+01
          0                 2           2             4    7     1       0.7654696290E-03       4    7    1         0.4038311272E-01      0.1216798976E+00
          0                 3           1             4    7     1       0.5879207990E-04       4    7    1         0.3078470406E-02      0.8759673582E-02

    ------------------------------------------------
       NWT REQUIRED            3 OUTER ITERATIONS 
       AND A TOTAL OF          5 INNER ITERATIONS.
    ------------------------------------------------

 NO OUTPUT CONTROL FOR STRESS PERIOD   49   TIME STEP   10
 
 SOLVING FOR HEAD 
                                                   Max.-Head-Change                         Max.-Flux-Residual
  Residual-Control   Outer-Iter.   Inner-Iter.     Column Row Layer    Maximum-Head-Change  Column Row Layer    Maximum-Flux-Residual          L2-NORM 
          0                 1           2             4    7     1       0.9860826111E-02       4    7    1         0.5160199578E+00      0.1388379416E+01
          0                 2           2             4    7     1       0.7583524589E-03       4    7    1         0.4001178853E-01      0.1209390962E+00
          0                 3           1             4    7     1       0.5823807444E-04       4    7    1         0.3049485754E-02      0.8703805999E-02

    ------------------------------------------------
       NWT REQUIRED            3 OUTER ITERATIONS 
       AND A TOTAL OF          5 INNER ITERATIONS.
    ------------------------------------------------

 NO OUTPUT CONTROL FOR STRESS PERIOD   49   TIME STEP   11
 
 SOLVING FOR HEAD 
                                                   Max.-Head-Change                         Max.-Flux-Residual
  Residual-Control   Outer-Iter.   Inner-Iter.     Column Row Layer    Maximum-Head-Change  Column Row Layer    Maximum-Flux-Residual          L2-NORM 
          0                 1           2             4    7     1       0.9770175563E-02       4    7    1         0.5112917505E+00      0.1378588910E+01
          0                 2           2             4    7     1       0.7512791575E-03       4    7    1         0.3964240481E-01      0.1202100229E+00
          0                 3           1             4    7     1       0.5768848318E-04       4    7    1         0.3020713721E-02      0.8648848578E-02

    ------------------------------------------------
       NWT REQUIRED            3 OUTER ITERATIONS 
       AND A TOTAL OF          5 INNER ITERATIONS.
    ------------------------------------------------

 NO OUTPUT CONTROL FOR STRESS PERIOD   49   TIME STEP   12
 
 SOLVING FOR HEAD 
                                                   Max.-Head-Change                         Max.-Flux-Residual
  Residual-Control   Outer-Iter.   Inner-Iter.     Column Row Layer    Maximum-Head-Change  Column Row Layer    Maximum-Flux-Residual          L2-NORM 
          0                 1           2             4    7     1       0.9679974445E-02       4    7    1         0.5065830174E+00      0.1368955133E+01
          0                 2           2             4    7     1       0.7442540226E-03       4    7    1         0.3927524922E-01      0.1194914229E+00
          0                 3           1             4    7     1       0.5714346121E-04       4    7    1         0.2992165670E-02      0.8594696728E-02

    ------------------------------------------------
       NWT REQUIRED            3 OUTER ITERATIONS 
       AND A TOTAL OF          5 INNER ITERATIONS.
    ------------------------------------------------

 NO OUTPUT CONTROL FOR STRESS PERIOD   49   TIME STEP   13
 
 SOLVING FOR HEAD 
                                                   Max.-Head-Change                         Max.-Flux-Residual
  Residual-Control   Outer-Iter.   Inner-Iter.     Column Row Layer    Maximum-Head-Change  Column Row Layer    Maximum-Flux-Residual          L2-NORM 
          0                 1           2             4    7     1       0.9590440793E-02       4    7    1         0.5019055860E+00      0.1359490843E+01
          0                 2           2             4    7     1       0.7372924529E-03       4    7    1         0.3891116475E-01      0.1187843596E+00
          0                 3           1             4    7     1       0.5660410787E-04       4    7    1         0.2963900548E-02      0.8541461701E-02

    ------------------------------------------------
       NWT REQUIRED            3 OUTER ITERATIONS 
       AND A TOTAL OF          5 INNER ITERATIONS.
    ------------------------------------------------

 NO OUTPUT CONTROL FOR STRESS PERIOD   49   TIME STEP   14
 
 SOLVING FOR HEAD 
                                                   Max.-Head-Change                         Max.-Flux-Residual
  Residual-Control   Outer-Iter.   Inner-Iter.     Column Row Layer    Maximum-Head-Change  Column Row Layer    Maximum-Flux-Residual          L2-NORM 
          0                 1           2             4    7     1       0.9501504025E-02       4    7    1         0.4972560435E+00      0.1350180849E+01
          0                 2           2             4    7     1       0.7303884668E-03       4    7    1         0.3854983685E-01      0.1180875868E+00
          0                 3           1             4    7     1       0.5606992646E-04       4    7    1         0.2935893901E-02      0.8489021406E-02

    ------------------------------------------------
       NWT REQUIRED            3 OUTER ITERATIONS 
       AND A TOTAL OF          5 INNER ITERATIONS.
    ------------------------------------------------

 NO OUTPUT CONTROL FOR STRESS PERIOD   49   TIME STEP   15
 
 SOLVING FOR HEAD 
                                                   Max.-Head-Change                         Max.-Flux-Residual
  Residual-Control   Outer-Iter.   Inner-Iter.     Column Row Layer    Maximum-Head-Change  Column Row Layer    Maximum-Flux-Residual          L2-NORM 
          0                 1           2             4    7     1       0.9413229001E-02       4    7    1         0.4926380159E+00      0.1341021820E+01
          0                 2           2             4    7     1       0.7235459577E-03       4    7    1         0.3819150556E-01      0.1174010098E+00
          0                 3           1             4    7     1       0.5554114507E-04       4    7    1         0.2908158278E-02      0.8437365740E-02

    ------------------------------------------------
       NWT REQUIRED            3 OUTER ITERATIONS 
       AND A TOTAL OF          5 INNER ITERATIONS.
    ------------------------------------------------

 NO OUTPUT CONTROL FOR STRESS PERIOD   49   TIME STEP   16
 
 SOLVING FOR HEAD 
                                                   Max.-Head-Change                         Max.-Flux-Residual
  Residual-Control   Outer-Iter.   Inner-Iter.     Column Row Layer    Maximum-Head-Change  Column Row Layer    Maximum-Flux-Residual          L2-NORM 
          0                 1           2             4    7     1       0.9325803532E-02       4    7    1         0.4880621052E+00      0.1332018738E+01
          0                 2           2             4    7     1       0.7167774388E-03       4    7    1         0.3783685555E-01      0.1167251173E+00
          0                 3           1             4    7     1       0.5501860382E-04       4    7    1         0.2880741105E-02      0.8386563923E-02

    ------------------------------------------------
       NWT REQUIRED            3 OUTER ITERATIONS 
       AND A TOTAL OF          5 INNER ITERATIONS.
    ------------------------------------------------

 NO OUTPUT CONTROL FOR STRESS PERIOD   49   TIME STEP   17
 
 SOLVING FOR HEAD 
                                                   Max.-Head-Change                         Max.-Flux-Residual
  Residual-Control   Outer-Iter.   Inner-Iter.     Column Row Layer    Maximum-Head-Change  Column Row Layer    Maximum-Flux-Residual          L2-NORM 
          0                 1           2             4    7     1       0.9239267707E-02       4    7    1         0.4835306113E+00      0.1323157736E+01
          0                 2           2             4    7     1       0.7100849379E-03       4    7    1         0.3748602924E-01      0.1160588152E+00
          0                 3           1             4    7     1       0.5450238363E-04       4    7    1         0.2853647380E-02      0.8336512942E-02

    ------------------------------------------------
       NWT REQUIRED            3 OUTER ITERATIONS 
       AND A TOTAL OF          5 INNER ITERATIONS.
    ------------------------------------------------

 NO OUTPUT CONTROL FOR STRESS PERIOD   49   TIME STEP   18
 
 SOLVING FOR HEAD 
                                                   Max.-Head-Change                         Max.-Flux-Residual
  Residual-Control   Outer-Iter.   Inner-Iter.     Column Row Layer    Maximum-Head-Change  Column Row Layer    Maximum-Flux-Residual          L2-NORM 
          0                 1           2             4    7     1       0.9153516684E-02       4    7    1         0.4790382410E+00      0.1314437474E+01
          0                 2           2             4    7     1       0.7034601605E-03       4    7    1         0.3713858195E-01      0.1154020492E+00
          0                 3           1             4    7     1       0.5399184146E-04       4    7    1         0.2826844112E-02      0.8287186060E-02

    ------------------------------------------------
       NWT REQUIRED            3 OUTER ITERATIONS 
       AND A TOTAL OF          5 INNER ITERATIONS.
    ------------------------------------------------

 NO OUTPUT CONTROL FOR STRESS PERIOD   49   TIME STEP   19
 
 SOLVING FOR HEAD 
                                                   Max.-Head-Change                         Max.-Flux-Residual
  Residual-Control   Outer-Iter.   Inner-Iter.     Column Row Layer    Maximum-Head-Change  Column Row Layer    Maximum-Flux-Residual          L2-NORM 
          0                 1           2             4    7     1       0.9068587758E-02       4    7    1         0.4745868671E+00      0.1305854434E+01
          0                 2           2             4    7     1       0.6969057893E-03       4    7    1         0.3679467282E-01      0.1147547430E+00
          0                 3           1             4    7     1       0.5348716590E-04       4    7    1         0.2800340780E-02      0.8238606596E-02

    ------------------------------------------------
       NWT REQUIRED            3 OUTER ITERATIONS 
       AND A TOTAL OF          5 INNER ITERATIONS.
    ------------------------------------------------

 NO OUTPUT CONTROL FOR STRESS PERIOD   49   TIME STEP   20
 
 SOLVING FOR HEAD 
                                                   Max.-Head-Change                         Max.-Flux-Residual
  Residual-Control   Outer-Iter.   Inner-Iter.     Column Row Layer    Maximum-Head-Change  Column Row Layer    Maximum-Flux-Residual          L2-NORM 
          0                 1           2             4    7     1       0.8984642902E-02       4    7    1         0.4701857169E+00      0.1297403843E+01
          0                 2           2             4    7     1       0.6904324104E-03       4    7    1         0.3645488405E-01      0.1141163021E+00
          0                 3           1             4    7     1       0.5298627552E-04       4    7    1         0.2774177051E-02      0.8188972674E-02

    ------------------------------------------------
       NWT REQUIRED            3 OUTER ITERATIONS 
       AND A TOTAL OF          5 INNER ITERATIONS.
    ------------------------------------------------

 NO OUTPUT CONTROL FOR STRESS PERIOD   49   TIME STEP   21
 
 SOLVING FOR HEAD 
                                                   Max.-Head-Change                         Max.-Flux-Residual
  Residual-Control   Outer-Iter.   Inner-Iter.     Column Row Layer    Maximum-Head-Change  Column Row Layer    Maximum-Flux-Residual          L2-NORM 
          0                 1           2             4    7     1       0.8901540807E-02       4    7    1         0.4658282891E+00      0.1289086856E+01
          0                 2           2             4    7     1       0.6840159083E-03       4    7    1         0.3611855281E-01      0.1134837013E+00
          0                 3           1             4    7     1       0.5249304078E-04       4    7    1         0.2748195607E-02      0.8141949295E-02

    ------------------------------------------------
       NWT REQUIRED            3 OUTER ITERATIONS 
       AND A TOTAL OF          5 INNER ITERATIONS.
    ------------------------------------------------

 NO OUTPUT CONTROL FOR STRESS PERIOD   49   TIME STEP   22
 
 SOLVING FOR HEAD 
                                                   Max.-Head-Change                         Max.-Flux-Residual
  Residual-Control   Outer-Iter.   Inner-Iter.     Column Row Layer    Maximum-Head-Change  Column Row Layer    Maximum-Flux-Residual          L2-NORM 
          0                 1           2             4    7     1       0.8819423108E-02       4    7    1         0.4615215397E+00      0.1280877574E+01
          0                 2           2             4    7     1       0.6776890527E-03       4    7    1         0.3578629945E-01      0.1128652407E+00
          0                 3           1             4    7     1       0.5200657980E-04       4    7    1         0.2722638577E-02      0.8095602188E-02

    ------------------------------------------------
       NWT REQUIRED            3 OUTER ITERATIONS 
       AND A TOTAL OF          5 INNER ITERATIONS.
    ------------------------------------------------

 NO OUTPUT CONTROL FOR STRESS PERIOD   49   TIME STEP   23
 
 SOLVING FOR HEAD 
                                                   Max.-Head-Change                         Max.-Flux-Residual
  Residual-Control   Outer-Iter.   Inner-Iter.     Column Row Layer    Maximum-Head-Change  Column Row Layer    Maximum-Flux-Residual          L2-NORM 
          0                 1           2             4    7     1       0.8738311145E-02       4    7    1         0.4572664123E+00      0.1272797834E+01
          0                 2           2             4    7     1       0.6714435843E-03       4    7    1         0.3545822782E-01      0.1122506599E+00
          0                 3           1             4    7     1       0.5152662797E-04       4    7    1         0.2697419162E-02      0.8049584252E-02

    ------------------------------------------------
       NWT REQUIRED            3 OUTER ITERATIONS 
       AND A TOTAL OF          5 INNER ITERATIONS.
    ------------------------------------------------

 NO OUTPUT CONTROL FOR STRESS PERIOD   49   TIME STEP   24
 
 SOLVING FOR HEAD 
                                                   Max.-Head-Change                         Max.-Flux-Residual
  Residual-Control   Outer-Iter.   Inner-Iter.     Column Row Layer    Maximum-Head-Change  Column Row Layer    Maximum-Flux-Residual          L2-NORM 
          0                 1           2             4    7     1       0.8658078822E-02       4    7    1         0.4530562157E+00      0.1264831010E+01
          0                 2           2             4    7     1       0.6652704027E-03       4    7    1         0.3513383555E-01      0.1116459428E+00
          0                 3           1             4    7     1       0.5105252560E-04       4    7    1         0.2672502729E-02      0.8004308010E-02

    ------------------------------------------------
       NWT REQUIRED            3 OUTER ITERATIONS 
       AND A TOTAL OF          5 INNER ITERATIONS.
    ------------------------------------------------

 NO OUTPUT CONTROL FOR STRESS PERIOD   49   TIME STEP   25
 
 SOLVING FOR HEAD 
                                                   Max.-Head-Change                         Max.-Flux-Residual
  Residual-Control   Outer-Iter.   Inner-Iter.     Column Row Layer    Maximum-Head-Change  Column Row Layer    Maximum-Flux-Residual          L2-NORM 
          0                 1           2             4    7     1       0.8578742896E-02       4    7    1         0.4488917700E+00      0.1256984484E+01
          0                 2           2             4    7     1       0.6591707502E-03       4    7    1         0.3481319633E-01      0.1110495475E+00
          0                 3           1             4    7     1       0.5058436137E-04       4    7    1         0.2647893617E-02      0.7959698579E-02

    ------------------------------------------------
       NWT REQUIRED            3 OUTER ITERATIONS 
       AND A TOTAL OF          5 INNER ITERATIONS.
    ------------------------------------------------

 NO OUTPUT CONTROL FOR STRESS PERIOD   49   TIME STEP   26
 
 SOLVING FOR HEAD 
                                                   Max.-Head-Change                         Max.-Flux-Residual
  Residual-Control   Outer-Iter.   Inner-Iter.     Column Row Layer    Maximum-Head-Change  Column Row Layer    Maximum-Flux-Residual          L2-NORM 
          0                 1           2             4    7     1       0.8499564960E-02       4    7    1         0.4447812487E+00      0.1230216666E+01
          0                 2           2             4    7     1       0.6529345660E-03       4    7    1         0.3448863183E-01      0.1078482541E+00
          0                 3           1             4    7     1       0.5009509565E-04       4    7    1         0.2622408268E-02      0.7755409704E-02

    ------------------------------------------------
       NWT REQUIRED            3 OUTER ITERATIONS 
       AND A TOTAL OF          5 INNER ITERATIONS.
    ------------------------------------------------

 NO OUTPUT CONTROL FOR STRESS PERIOD   49   TIME STEP   27
 
 SOLVING FOR HEAD 
                                                   Max.-Head-Change                         Max.-Flux-Residual
  Residual-Control   Outer-Iter.   Inner-Iter.     Column Row Layer    Maximum-Head-Change  Column Row Layer    Maximum-Flux-Residual          L2-NORM 
          0                 1           2             4    7     1       0.8421340486E-02       4    7    1         0.4406706355E+00      0.1242749962E+01
          0                 2           2             4    7     1       0.6469359864E-03       4    7    1         0.3417293554E-01      0.1101230870E+00
          0                 3           1             4    7     1       0.4963577510E-04       4    7    1         0.2598242961E-02      0.7887296305E-02

    ------------------------------------------------
       NWT REQUIRED            3 OUTER ITERATIONS 
       AND A TOTAL OF          5 INNER ITERATIONS.
    ------------------------------------------------

 NO OUTPUT CONTROL FOR STRESS PERIOD   49   TIME STEP   28
 
 SOLVING FOR HEAD 
                                                   Max.-Head-Change                         Max.-Flux-Residual
  Residual-Control   Outer-Iter.   Inner-Iter.     Column Row Layer    Maximum-Head-Change  Column Row Layer    Maximum-Flux-Residual          L2-NORM 
          0                 1           2             4    7     1       0.8344238050E-02       4    7    1         0.4366184635E+00      0.1235216154E+01
          0                 2           2             3    7     1      -0.6433270839E-03       4    7    1         0.3386181957E-01      0.1095414572E+00
          0                 3           1             4    7     1       0.4918333898E-04       4    7    1         0.2574438397E-02      0.7843974706E-02

    ------------------------------------------------
       NWT REQUIRED            3 OUTER ITERATIONS 
       AND A TOTAL OF          5 INNER ITERATIONS.
    ------------------------------------------------

 NO OUTPUT CONTROL FOR STRESS PERIOD   49   TIME STEP   29
 
 SOLVING FOR HEAD 
                                                   Max.-Head-Change                         Max.-Flux-Residual
  Residual-Control   Outer-Iter.   Inner-Iter.     Column Row Layer    Maximum-Head-Change  Column Row Layer    Maximum-Flux-Residual          L2-NORM 
          0                 1           2             4    7     1       0.8268111984E-02       4    7    1         0.4326171176E+00      0.1227789599E+01
          0                 2           2             3    7     1      -0.6426876028E-03       4    7    1         0.3355469212E-01      0.1089675412E+00
          0                 3           1             4    7     1       0.4873691940E-04       4    7    1         0.2550948873E-02      0.7801257574E-02

    ------------------------------------------------
       NWT REQUIRED            3 OUTER ITERATIONS 
       AND A TOTAL OF          5 INNER ITERATIONS.
    ------------------------------------------------

 NO OUTPUT CONTROL FOR STRESS PERIOD   49   TIME STEP   30



 STREAM LISTING     PERIOD     49   STEP       30

 LAYER ROW COL. STREAM  RCH.  FLOW INTO     FLOW TO   FLOW OUT OF   OVRLND.     DIRECT     STREAM       STREAM     STREAM     STREAM   STREAMBED  STREAMBED
                SEG.NO.  NO.  STRM. RCH.    AQUIFER    STRM. RCH.    RUNOFF     PRECIP       ET          HEAD       DEPTH      WIDTH   CONDCTNC.   GRADIENT

   1    1    1     1     1    7.1250E+00  1.2038E-01   7.0046E+00  0.000E+00  0.000E+00  0.000E+00  1.09385E+03  8.024E-01  7.035E+00  3.166E-02  1.267E+00
   1    2    2     1     2    7.0046E+00  1.8492E-01   6.8197E+00  0.000E+00  0.000E+00  0.000E+00  1.08886E+03  7.976E-01  6.956E+00  4.869E-02  1.266E+00
   1    3    3     1     3    6.8197E+00  1.5635E-01   6.6634E+00  0.000E+00  0.000E+00  0.000E+00  1.08321E+03  7.929E-01  6.870E+00  4.122E-02  1.264E+00
   1    3    4     1     4    6.6634E+00  1.4286E-01   6.5205E+00  0.000E+00  0.000E+00  0.000E+00  1.07820E+03  7.886E-01  6.794E+00  3.771E-02  1.263E+00
   1    4    5     2     1    4.5205E+00  2.6715E-01   4.2533E+00  0.000E+00  0.000E+00  0.000E+00  1.07236E+03  4.251E-01  1.200E+01  7.800E-02  1.142E+00
   1    5    6     2     2    4.2533E+00  2.0467E-01   4.0487E+00  0.000E+00  0.000E+00  0.000E+00  1.06692E+03  4.112E-01  1.200E+01  6.000E-02  1.137E+00
   1    6    6     2     3    4.0487E+00  2.0394E-01   3.8447E+00  0.000E+00  0.000E+00  0.000E+00  1.06219E+03  3.989E-01  1.200E+01  6.000E-02  1.133E+00
   1    7    6     2     4    3.8447E+00  2.0319E-01   3.6416E+00  0.000E+00  0.000E+00  0.000E+00  1.05746E+03  3.864E-01  1.200E+01  6.000E-02  1.129E+00
   1    8    6     2     5    3.6416E+00  2.0242E-01   3.4391E+00  0.000E+00  0.000E+00  0.000E+00  1.05273E+03  3.737E-01  1.200E+01  6.000E-02  1.125E+00
   1    3    5     3     1    2.0000E+00  2.8252E-01   1.7175E+00  0.000E+00  0.000E+00  0.000E+00  1.07555E+03  1.909E+00  9.636E+00  7.227E-02  1.955E+00
   1    3    6     3     2    1.7175E+00  2.4905E-01   1.4684E+00  0.000E+00  0.000E+00  0.000E+00  1.07264E+03  1.727E+00  8.909E+00  6.682E-02  1.864E+00
   1    3    7     3     3    1.4684E+00  1.9718E-01   1.2712E+00  0.000E+00  0.000E+00  0.000E+00  1.06987E+03  1.555E+00  8.218E+00  5.547E-02  1.777E+00
   1    4    8     3     4    1.2712E+00  2.2567E-01   1.0456E+00  0.000E+00  0.000E+00  0.000E+00  1.06682E+03  1.364E+00  7.455E+00  6.709E-02  1.682E+00
   1    5    8     3     5    1.0456E+00  1.5790E-01   8.8768E-01  0.000E+00  0.000E+00  0.000E+00  1.06362E+03  1.164E+00  6.655E+00  4.991E-02  1.582E+00
   1    6    8     3     6    8.8768E-01  5.5980E-02   8.3170E-01  0.000E+00  0.000E+00  0.000E+00  1.06158E+03  1.036E+00  6.145E+00  1.844E-02  1.518E+00
   1    5   10     4     1    1.0000E+01  9.0919E-02   9.9091E+00  0.000E+00  0.000E+00  0.000E+00  1.07836E+03  6.368E-01  1.000E+01  2.500E-02  1.212E+00
   1    5    9     4     2    9.9091E+00  1.8158E-01   9.7275E+00  0.000E+00  0.000E+00  0.000E+00  1.07154E+03  6.315E-01  1.000E+01  5.000E-02  1.211E+00
   1    6    8     4     3    9.7275E+00  1.2689E-01   9.6006E+00  0.000E+00  0.000E+00  0.000E+00  1.06381E+03  6.256E-01  1.000E+01  3.500E-02  1.209E+00
   1    6    8     5     1    1.0432E+01  2.2686E-01   1.0205E+01  0.000E+00  0.000E+00  0.000E+00  1.05868E+03  6.790E-01  1.542E+01  6.166E-02  1.226E+00
   1    7    7     5     2    1.0205E+01  2.7894E-01   9.9265E+00  0.000E+00  0.000E+00  0.000E+00  1.05417E+03  6.732E-01  1.519E+01  7.594E-02  1.224E+00
   1    8    7     5     3    9.9265E+00  1.9221E-01   9.7343E+00  0.000E+00  0.000E+00  0.000E+00  1.04992E+03  6.676E-01  1.497E+01  5.241E-02  1.223E+00
   1    8    6     5     4    9.7343E+00  1.3577E-01   9.5985E+00  0.000E+00  0.000E+00  0.000E+00  1.04691E+03  6.637E-01  1.482E+01  3.706E-02  1.221E+00
   1    9    6     6     1    1.3038E+01  2.2931E-01   1.2808E+01  0.000E+00  0.000E+00  0.000E+00  1.04355E+03  8.218E-01  1.200E+01  6.000E-02  1.274E+00
   1   10    7     6     2    1.2808E+01  2.2878E-01   1.2580E+01  0.000E+00  0.000E+00  0.000E+00  1.03899E+03  8.131E-01  1.200E+01  6.000E-02  1.271E+00
   1   11    7     6     3    1.2580E+01  2.2826E-01   1.2351E+01  0.000E+00  0.000E+00  0.000E+00  1.03444E+03  8.043E-01  1.200E+01  6.000E-02  1.268E+00
   1   12    7     6     4    1.2351E+01  2.2772E-01   1.2124E+01  0.000E+00  0.000E+00  0.000E+00  1.02989E+03  7.954E-01  1.200E+01  6.000E-02  1.265E+00
   1   13    7     6     5    1.2124E+01  7.2123E-03   1.2116E+01  0.000E+00  0.000E+00  0.000E+00  1.02670E+03  7.908E-01  1.200E+01  2.400E-02  1.002E-01
   1   14    9     7     1    1.5000E+02  1.4117E+00   1.4859E+02  0.000E+00  0.000E+00  0.000E+00  1.03987E+03  2.288E+00  5.529E+01  5.593E-01  8.414E-01
   1   13    8     7     2    1.4859E+02  2.0606E+00   1.4653E+02  0.000E+00  0.000E+00  0.000E+00  1.03478E+03  2.278E+00  5.525E+01  6.147E-01  1.117E+00
   1   13    7     7     3    1.4653E+02  1.8357E+00   1.4469E+02  0.000E+00  0.000E+00  0.000E+00  1.02969E+03  2.268E+00  5.521E+01  5.583E-01  1.096E+00
   1   13    6     8     1    1.5681E+02  1.1970E+00   1.5561E+02  0.000E+00  0.000E+00  0.000E+00  1.02473E+03  2.860E+00  4.147E+01  4.226E-01  9.442E-01
   1   13    5     8     2    1.5561E+02  4.3628E-01   1.5518E+02  0.000E+00  0.000E+00  0.000E+00  1.01848E+03  2.854E+00  4.139E+01  4.218E-01  3.448E-01
   1   13    4     8     3    1.5518E+02 -1.5395E+00   1.5671E+02  0.000E+00  0.000E+00  0.000E+00  1.01223E+03  2.858E+00  4.144E+01  4.223E+00 -1.215E-01
   1   13    3     8     4    1.5671E+02 -3.1970E+00   1.5991E+02  0.000E+00  0.000E+00  0.000E+00  1.00600E+03  2.874E+00  4.168E+01  4.247E+00 -2.509E-01
   1   13    2     8     5    1.5991E+02 -2.4633E+00   1.6237E+02  0.000E+00  0.000E+00  0.000E+00  9.99769E+02  2.894E+00  4.196E+01  4.276E+00 -1.920E-01
   1   13    1     8     6    1.6237E+02 -1.9512E+00   1.6433E+02  0.000E+00  0.000E+00  0.000E+00  9.94783E+02  2.908E+00  4.217E+01  2.578E+00 -2.522E-01
   1    8    6     9     1    0.0000E+00  0.0000E+00   0.0000E+00  0.000E+00  0.000E+00  0.000E+00  1.07875E+03  0.000E+00  4.000E+00  0.000E+00  1.000E+00
   1    8    5     9     2    0.0000E+00  0.0000E+00   0.0000E+00  0.000E+00  0.000E+00  0.000E+00  1.07825E+03  0.000E+00  4.000E+00  0.000E+00  1.000E+00





UNSATURATED ZONE PACKAGE VOLUMETRIC BUDGET FOR  TIME STEP    30 STRESS PERIOD   49
  ------------------------------------------------------------------------------



     CUMULATIVE VOLUMES      L**3       RATES FOR THIS TIME STEP      L**3/T
     ------------------                 ------------------------

           IN:                                      IN:
           ---                                      ---
        INFILTRATION =  2190401168.4135          INFILTRATION =           0.8475

          OUT:                                     OUT:
          ----                                     ----
              UZF ET =  1706175781.9832                UZF ET =           0.7500
        UZF RECHARGE =   229865367.2990          UZF RECHARGE =           0.4409

            IN - OUT =   254360019.1313              IN - OUT =          -0.3434

          STORAGE:                                 STORAGE:
          --------                                 --------
      STORAGE CHANGE =   254360266.7544        STORAGE CHANGE =          -0.3434

 PERCENT DISCREPANCY IS DIFFERENCE BETWEEN IN-OUT MINUS CHANGE IN STORAGE
 DIVIDED BY THE AVERAGE OF IN AND OUT TIMES 100

 PERCENT DISCREPANCY =          -0.00     PERCENT DISCREPANCY =           0.00






1
  VOLUMETRIC BUDGET FOR AGRICULTURAL FIELDS AT  END OF TIME STEP   30, STRESS PERIOD  49
  ------------------------------------------------------------------------------

     CUMULATIVE VOLUMES      L**3       RATES FOR THIS TIME STEP      L**3/T
     ------------------                 ------------------------

           IN:                                      IN:
           ---                                      ---
               AG WELLS  =  1347940992.0000                 AG WELLS  =           0.0000
      DIVERSION SEGMENTS =   735501696.0000        DIVERSION SEGMENTS =           0.0000
       IRRIGATION PONDS  =           0.0000         IRRIGATION PONDS  =           0.0000
           GW IRRIGATION =           0.0000             GW IRRIGATION =           0.0000
           SW IRRIGATION =           0.0000             SW IRRIGATION =           0.0000
        SYSTEM LOSSES GW =           0.0000          SYSTEM LOSSES GW =           0.0000
        SYSTEM LOSSES SW =           0.0000          SYSTEM LOSSES SW =           0.0000

                TOTAL IN =  2083442688.0000                  TOTAL IN =           0.0000

          OUT:                                     OUT:
          ----                                     ----
               AG WELLS  =           0.0000                 AG WELLS  =           0.0000
      DIVERSION SEGMENTS =           0.0000        DIVERSION SEGMENTS =           0.0000
       IRRIGATION PONDS  =           0.0000         IRRIGATION PONDS  =           0.0000
           GW IRRIGATION =  1347940992.0000             GW IRRIGATION =           0.0000
           SW IRRIGATION =   735514688.0000             SW IRRIGATION =           0.0000
        SYSTEM LOSSES GW =           0.0000          SYSTEM LOSSES GW =           0.0000
        SYSTEM LOSSES SW =           0.0000          SYSTEM LOSSES SW =           0.0000

               TOTAL OUT =  2083455744.0000                 TOTAL OUT =           0.0000

                IN - OUT =      -13056.0000                  IN - OUT =           0.0000

     PERCENT DISCREPANCY =          -0.00         PERCENT DISCREPANCY =           0.00



1
  VOLUMETRIC BUDGET FOR ENTIRE MODEL AT END OF TIME STEP   30, STRESS PERIOD  49
  ------------------------------------------------------------------------------

     CUMULATIVE VOLUMES      L**3       RATES FOR THIS TIME STEP      L**3/T
     ------------------                 ------------------------

           IN:                                      IN:
           ---                                      ---
             STORAGE     =  1944469248.0000               STORAGE     =           2.4212
       CONSTANT HEAD     =           0.0000         CONSTANT HEAD     =           0.0000
     HEAD DEP BOUNDS     =    36510956.0000       HEAD DEP BOUNDS     =           0.2909
      STREAM LEAKAGE     =  1522043776.0000        STREAM LEAKAGE     =          11.9500
        UZF RECHARGE     =   229865424.0000          UZF RECHARGE     =           0.4409
               GW ET     =           0.0000                 GW ET     =           0.0000
     SURFACE LEAKAGE     =           0.0000       SURFACE LEAKAGE     =           0.0000
           AG WELLS      =           0.0000             AG WELLS      =           0.0000

                TOTAL IN =  3732889600.0000                  TOTAL IN =          15.1030

          OUT:                                     OUT:
          ----                                     ----
             STORAGE     =  1121262080.0000               STORAGE     =           5.6647
       CONSTANT HEAD     =           0.0000         CONSTANT HEAD     =           0.0000
     HEAD DEP BOUNDS     =    36334452.0000       HEAD DEP BOUNDS     =           0.2865
      STREAM LEAKAGE     =  1227319680.0000        STREAM LEAKAGE     =           9.1510
        UZF RECHARGE     =           0.0000          UZF RECHARGE     =           0.0000
               GW ET     =           0.0000                 GW ET     =           0.0000
     SURFACE LEAKAGE     =           0.0000       SURFACE LEAKAGE     =           0.0000
           AG WELLS      =  1347940992.0000             AG WELLS      =           0.0000

               TOTAL OUT =  3732857344.0000                 TOTAL OUT =          15.1022

                IN - OUT =       32256.0000                  IN - OUT =       8.0395E-04

     PERCENT DISCREPANCY =           0.00         PERCENT DISCREPANCY =           0.01






         TIME SUMMARY AT END OF TIME STEP   30 IN STRESS PERIOD   49
                    SECONDS     MINUTES      HOURS       DAYS        YEARS
                    -----------------------------------------------------------
   TIME STEP LENGTH  87667.      1461.1      24.352      1.0147     2.77799E-03
 STRESS PERIOD TIME 2.63000E+06  43833.      730.56      30.440     8.33397E-02
         TOTAL TIME 1.26325E+08 2.10542E+06  35090.      1462.1      4.0030    
1


 Run end date and time (yyyy/mm/dd hh:mm:ss): 2022/02/04 20:43:09
 Elapsed run time: 4.833 Seconds

