                                  MODFLOW-NWT-SWR1 
      U.S. GEOLOGICAL SURVEY MODULAR FINITE-DIFFERENCE GROUNDWATER-FLOW MODEL
                            VERSION 1.2.0 03/01/2020
                    BASED ON MODFLOW-2005 VERSION 1.12.00 02/03/2017

 LIST FILE: .\output\UZFtest2.lst
                         UNIT    9

 OPENING .\input\UZFtest2.ba6
 FILE TYPE:BAS6   UNIT   75   STATUS:OLD    
 FORMAT:FORMATTED              ACCESS:SEQUENTIAL          

 OPENING .\input\UZFtest2.upw
 FILE TYPE:UPW   UNIT    7   STATUS:OLD    
 FORMAT:FORMATTED              ACCESS:SEQUENTIAL          

 OPENING .\input\UZFtest2.dis
 FILE TYPE:DIS   UNIT    8   STATUS:OLD    
 FORMAT:FORMATTED              ACCESS:SEQUENTIAL          

 OPENING .\input\UZFtest2.nwt
 FILE TYPE:NWT   UNIT   13   STATUS:OLD    
 FORMAT:FORMATTED              ACCESS:SEQUENTIAL          

 OPENING .\input\UZFtest2.oc
 FILE TYPE:OC   UNIT   14   STATUS:OLD    
 FORMAT:FORMATTED              ACCESS:SEQUENTIAL          

 OPENING .\input\UZFtest2.sfr
 FILE TYPE:SFR   UNIT   15   STATUS:OLD    
 FORMAT:FORMATTED              ACCESS:SEQUENTIAL          

 OPENING .\input\UZFtest2.wel
 FILE TYPE:WEL   UNIT   16   STATUS:OLD    
 FORMAT:FORMATTED              ACCESS:SEQUENTIAL          

 OPENING .\input\UZFtest2.ghb
 FILE TYPE:GHB   UNIT   17   STATUS:OLD    
 FORMAT:FORMATTED              ACCESS:SEQUENTIAL          

 OPENING .\input\UZFtest2.uzf
 FILE TYPE:UZF   UNIT   19   STATUS:OLD    
 FORMAT:FORMATTED              ACCESS:SEQUENTIAL          

 OPENING .\input\UZFtest2.gag
 FILE TYPE:GAGE   UNIT   32   STATUS:OLD    
 FORMAT:FORMATTED              ACCESS:SEQUENTIAL          

 OPENING .\output\UZFtest2hd.out
 FILE TYPE:DATA   UNIT   58   STATUS:UNKNOWN
 FORMAT:FORMATTED              ACCESS:SEQUENTIAL          

 OPENING .\output\UZFtest2.uzfot
 FILE TYPE:DATA(BINARY)   UNIT   61   STATUS:UNKNOWN
 FORMAT:UNFORMATTED            ACCESS:STREAM              

 OPENING .\output\UZFtest2.uzf1
 FILE TYPE:DATA   UNIT   65   STATUS:UNKNOWN
 FORMAT:FORMATTED              ACCESS:SEQUENTIAL          

 OPENING .\output\UZFtest2.uzf2
 FILE TYPE:DATA   UNIT   66   STATUS:UNKNOWN
 FORMAT:FORMATTED              ACCESS:SEQUENTIAL          

 OPENING .\output\UZFtest2.uzf3
 FILE TYPE:DATA   UNIT   67   STATUS:UNKNOWN
 FORMAT:FORMATTED              ACCESS:SEQUENTIAL          

 OPENING .\output\UZFtest2.uzf4
 FILE TYPE:DATA   UNIT   68   STATUS:UNKNOWN
 FORMAT:FORMATTED              ACCESS:SEQUENTIAL          

 OPENING .\output\UZFtest2.flw
 FILE TYPE:DATA   UNIT   81   STATUS:UNKNOWN
 FORMAT:FORMATTED              ACCESS:SEQUENTIAL          

 OPENING .\output\UZFtest2.sg1
 FILE TYPE:DATA   UNIT   83   STATUS:UNKNOWN
 FORMAT:FORMATTED              ACCESS:SEQUENTIAL          

 OPENING .\output\UZFtest2.sg2
 FILE TYPE:DATA   UNIT   84   STATUS:UNKNOWN
 FORMAT:FORMATTED              ACCESS:SEQUENTIAL          

 OPENING .\output\UZFtest2.sg3
 FILE TYPE:DATA   UNIT   85   STATUS:UNKNOWN
 FORMAT:FORMATTED              ACCESS:SEQUENTIAL          

 OPENING .\output\UZFtest2.sg4
 FILE TYPE:DATA   UNIT   86   STATUS:UNKNOWN
 FORMAT:FORMATTED              ACCESS:SEQUENTIAL          

 OPENING .\output\UZFtest2.sg5
 FILE TYPE:DATA   UNIT   87   STATUS:UNKNOWN
 FORMAT:FORMATTED              ACCESS:SEQUENTIAL          

 OPENING .\output\UZFtest2.sg6
 FILE TYPE:DATA   UNIT   88   STATUS:UNKNOWN
 FORMAT:FORMATTED              ACCESS:SEQUENTIAL          

 OPENING .\output\UZFtest2.sg7
 FILE TYPE:DATA   UNIT   89   STATUS:UNKNOWN
 FORMAT:FORMATTED              ACCESS:SEQUENTIAL          

 OPENING .\output\UZFtest2.sg8
 FILE TYPE:DATA   UNIT   90   STATUS:UNKNOWN
 FORMAT:FORMATTED              ACCESS:SEQUENTIAL          

 OPENING .\output\UZFtest2dv.sg9
 FILE TYPE:DATA   UNIT   91   STATUS:UNKNOWN
 FORMAT:FORMATTED              ACCESS:SEQUENTIAL          

 BAS -- BASIC PACKAGE, VERSION 1.1.4, 4/01/2018 INPUT READ FROM UNIT   75
 
 MODFLOW was compiled using mixed precision
 Precision of REAL variables:           6
 Precision of DOUBLE PRECISION variables:          15

 DISCRETIZATION INPUT DATA READ FROM UNIT    8
 #Test problem 2, 2 layer version -- Discretization input
 #Example problem using the UZF1 Package
    2 LAYERS        15 ROWS        10 COLUMNS
   12 STRESS PERIOD(S) IN SIMULATION
 MODEL TIME UNIT IS SECONDS
 MODEL LENGTH UNIT IS FEET
  Confining bed flag for each layer:
   0   0

                     DELR =   5000.00    

                     DELC =   5000.00    



           TOP ELEVATION OF LAYER 1
 READING ON UNIT    8 WITH FORMAT: (10F7.0)            

            1           2           3           4           5           6           7           8           9          10
 ........................................................................................................................
   1    1105.       1105.       0.000       0.000       0.000       0.000       0.000       0.000       0.000       0.000    
   2    1105.       1095.       1105.       0.000       0.000       1100.       1100.       1110.       0.000       0.000    
   3    0.000       1100.       1085.       1080.       1078.       1076.       1073.       1090.       0.000       0.000    
   4    1110.       1100.       1090.       1085.       1076.       1080.       1080.       1070.       1100.       0.000    
   5    1110.       1100.       1085.       1080.       1078.       1074.       1077.       1066.       1075.       1080.    
   6    1105.       1095.       1080.       1077.       1073.       1069.       1070.       1063.       1085.       1095.    
   7    1105.       1090.       1075.       1072.       1070.       1065.       1065.       1069.       1090.       0.000    
   8    0.000       1080.       1070.       1068.       1063.       1060.       1063.       1067.       1090.       0.000    
   9    0.000       1075.       1065.       1062.       1058.       1052.       1055.       1065.       1090.       0.000    
  10    0.000       1070.       1060.       1055.       1046.       1046.       1044.       1060.       1088.       1100.    
  11    0.000       1055.       1050.       1045.       1041.       1042.       1040.       1050.       1075.       0.000    
  12    1027.       1028.       1028.       1032.       1032.       1033.       1032.       1040.       1060.       0.000    
  13    997.0       1004.       1008.       1014.       1020.       1027.       1032.       1038.       1050.       0.000    
  14    0.000       1030.       1040.       1045.       1050.       1050.       1050.       1050.       1044.       0.000    
  15    0.000       0.000       1080.       1080.       1080.       1080.       0.000       0.000       0.000       0.000    



             MODEL LAYER BOTTOM EL. FOR LAYER   1
 READING ON UNIT    8 WITH FORMAT: (FREE)              

            1           2           3           4           5           6           7           8           9          10
 ........................................................................................................................
   1    1055.       1055.      -50.00      -50.00      -50.00      -50.00      -50.00      -50.00      -50.00      -50.00    
   2    1055.       1045.       1055.      -50.00      -50.00       1050.       1050.       1060.      -50.00      -50.00    
   3   -50.00       1050.       1035.       1030.       1028.       1026.       1023.       1040.      -50.00      -50.00    
   4    1060.       1050.       1040.       1035.       1026.       1030.       1030.       1020.       1050.      -50.00    
   5    1060.       1050.       1035.       1030.       1028.       1024.       1027.       1016.       1025.       1030.    
   6    1055.       1045.       1030.       1027.       1023.       1019.       1020.       1013.       1035.       1045.    
   7    1055.       1040.       1025.       1022.       1020.       1015.       1015.       1019.       1040.      -50.00    
   8   -50.00       1030.       1020.       1018.       1013.       1010.       1013.       1017.       1040.      -50.00    
   9   -50.00       1025.       1015.       1012.       1008.       1002.       1005.       1015.       1040.      -50.00    
  10   -50.00       1020.       1010.       1005.       996.0       996.0       994.0       1010.       1038.       1050.    
  11   -50.00       1005.       1000.       995.0       991.0       992.0       990.0       1000.       1025.      -50.00    
  12    977.0       978.0       978.0       982.0       982.0       983.0       982.0       990.0       1010.      -50.00    
  13    947.0       954.0       958.0       964.0       970.0       977.0       982.0       988.0       1000.      -50.00    
  14   -50.00       980.0       990.0       995.0       1000.       1000.       1000.       1000.       994.0      -50.00    
  15   -50.00      -50.00       1030.       1030.       1030.       1030.      -50.00      -50.00      -50.00      -50.00    



             MODEL LAYER BOTTOM EL. FOR LAYER   2
 READING ON UNIT    8 WITH FORMAT: (10F7.0)            

            1           2           3           4           5           6           7           8           9          10
 ........................................................................................................................
   1    1000.       1000.       0.000       0.000       0.000       0.000       0.000       0.000       0.000       0.000    
   2    1000.       900.0       900.0       0.000       0.000       950.0       950.0       950.0       0.000       0.000    
   3    0.000       850.0       670.0       680.0       680.0       770.0       770.0       890.0       0.000       0.000    
   4    925.0       850.0       650.0       650.0       650.0       680.0       740.0       850.0       950.0       0.000    
   5    925.0       800.0       650.0       600.0       600.0       600.0       650.0       720.0       850.0       950.0    
   6    925.0       800.0       650.0       600.0       550.0       600.0       650.0       720.0       850.0       970.0    
   7    925.0       800.0       650.0       600.0       550.0       600.0       650.0       720.0       950.0       0.000    
   8    0.000       850.0       700.0       650.0       570.0       600.0       700.0       850.0       950.0       0.000    
   9    0.000       850.0       700.0       650.0       540.0       580.0       700.0       850.0       950.0       0.000    
  10    0.000       850.0       700.0       630.0       530.0       580.0       650.0       800.0       900.0       950.0    
  11    0.000       850.0       700.0       620.0       580.0       620.0       700.0       800.0       900.0       0.000    
  12    900.0       830.0       710.0       640.0       600.0       650.0       700.0       800.0       900.0       0.000    
  13    900.0       810.0       750.0       700.0       650.0       700.0       750.0       800.0       900.0       0.000    
  14    0.000       950.0       850.0       850.0       850.0       850.0       850.0       850.0       850.0       0.000    
  15    0.000       0.000       950.0       950.0       950.0       950.0       0.000       0.000       0.000       0.000    


 STRESS PERIOD     LENGTH       TIME STEPS     MULTIPLIER FOR DELT    SS FLAG
 ----------------------------------------------------------------------------
        1         2628000.          1                    1.000         SS
        2         2628000.         15                    1.100         TR
        3         2628000.         15                    1.100         TR
        4         2628000.         15                    1.100         TR
        5         2628000.         15                    1.100         TR
        6         2628000.         15                    1.100         TR
        7         2628000.         15                    1.100         TR
        8         2628000.         15                    1.100         TR
        9         2628000.         15                    1.100         TR
       10         2628000.         15                    1.100         TR
       11         2628000.         15                    1.100         TR
       12         2628000.         15                    1.100         TR

 COMBINED STEADY-STATE AND TRANSIENT SIMULATION



 
 #Test Simulation 2-- Example problem using the UZF1 Package                     
 #Modified from example Problem 1 of SFR1 documentation report                   
 THE FREE FORMAT OPTION HAS BEEN SELECTED



                     BOUNDARY ARRAY FOR LAYER   1
 READING ON UNIT   75 WITH FORMAT: (20I4)              

                1           2           3           4           5           6           7           8           9          10
 ............................................................................................................................
   1            1           1           0           0           0           0           0           0           0           0
   2            1           1           1           0           0           1           1           1           0           0
   3            0           1           1           1           1           1           1           1           0           0
   4            1           1           1           1           1           1           1           1           1           0
   5            1           1           1           1           1           1           1           1           1           1
   6            1           1           1           1           1           1           1           1           1           1
   7            1           1           1           1           1           1           1           1           1           0
   8            0           1           1           1           1           1           1           1           1           0
   9            0           1           1           1           1           1           1           1           1           0
  10            0           1           1           1           1           1           1           1           1           1
  11            0           1           1           1           1           1           1           1           1           0
  12            1           1           1           1           1           1           1           1           1           0
  13            1           1           1           1           1           1           1           1           1           0
  14            0           1           1           1           1           1           1           1           1           0
  15            0           0           1           1           1           1           0           0           0           0



                     BOUNDARY ARRAY FOR LAYER   2
 READING ON UNIT   75 WITH FORMAT: (20I4)              

                1           2           3           4           5           6           7           8           9          10
 ............................................................................................................................
   1            1           1           0           0           0           0           0           0           0           0
   2            1           1           1           0           0           1           1           1           0           0
   3            0           1           1           1           1           1           1           1           0           0
   4            1           1           1           1           1           1           1           1           1           0
   5            1           1           1           1           1           1           1           1           1           1
   6            1           1           1           1           1           1           1           1           1           1
   7            1           1           1           1           1           1           1           1           1           0
   8            0           1           1           1           1           1           1           1           1           0
   9            0           1           1           1           1           1           1           1           1           0
  10            0           1           1           1           1           1           1           1           1           1
  11            0           1           1           1           1           1           1           1           1           0
  12            1           1           1           1           1           1           1           1           1           0
  13            1           1           1           1           1           1           1           1           1           0
  14            0           1           1           1           1           1           1           1           1           0
  15            0           0           1           1           1           1           0           0           0           0

 AQUIFER HEAD WILL BE SET TO   6999.0     AT ALL NO-FLOW NODES (IBOUND=0).



                       INITIAL HEAD FOR LAYER   1
 READING ON UNIT   75 WITH FORMAT: (10F8.0)            

            1           2           3           4           5           6           7           8           9          10
 ........................................................................................................................
   1    1093.       1089.       6999.       6999.       6999.       6999.       6999.       6999.       6999.       6999.    
   2    1090.       1087.       1081.       6999.       6999.       1072.       1071.       1071.       6999.       6999.    
   3    6999.       1079.       1078.       1074.       1072.       1071.       1069.       1068.       6999.       6999.    
   4    1069.       1071.       1070.       1067.       1065.       1064.       1064.       1066.       1066.       6999.    
   5    1065.       1064.       1063.       1062.       1061.       1061.       1060.       1062.       1066.       1068.    
   6    1060.       1058.       1057.       1056.       1056.       1057.       1057.       1059.       1062.       1066.    
   7    1056.       1053.       1052.       1051.       1051.       1052.       1053.       1055.       1056.       6999.    
   8    6999.       1046.       1046.       1046.       1046.       1046.       1048.       1050.       1050.       6999.    
   9    6999.       1039.       1039.       1039.       1040.       1041.       1042.       1043.       1044.       6999.    
  10    6999.       1031.       1032.       1033.       1034.       1035.       1037.       1038.       1039.       1042.    
  11    6999.       1021.       1023.       1027.       1029.       1030.       1032.       1034.       1036.       6999.    
  12    1001.       1009.       1015.       1020.       1023.       1026.       1029.       1030.       1034.       6999.    
  13    994.5      1000.0       1007.       1013.       1019.       1024.       1029.       1034.       1036.       6999.    
  14    6999.       1004.       1009.       1014.       1019.       1024.       1029.       1035.       1039.       6999.    
  15    6999.       6999.       1012.       1015.       1019.       1022.       6999.       6999.       6999.       6999.    



                       INITIAL HEAD FOR LAYER   2
 READING ON UNIT   75 WITH FORMAT: (10F8.0)            

            1           2           3           4           5           6           7           8           9          10
 ........................................................................................................................
   1    1093.       1089.       6999.       6999.       6999.       6999.       6999.       6999.       6999.       6999.    
   2    1090.       1087.       1081.       6999.       6999.       1072.       1071.       1071.       6999.       6999.    
   3    6999.       1079.       1078.       1074.       1072.       1071.       1069.       1068.       6999.       6999.    
   4    1069.       1071.       1070.       1067.       1065.       1064.       1064.       1066.       1066.       6999.    
   5    1065.       1064.       1063.       1062.       1061.       1061.       1060.       1062.       1066.       1068.    
   6    1060.       1058.       1057.       1056.       1056.       1057.       1057.       1059.       1062.       1066.    
   7    1056.       1053.       1052.       1051.       1051.       1052.       1053.       1055.       1056.       6999.    
   8    6999.       1046.       1046.       1046.       1046.       1046.       1048.       1050.       1050.       6999.    
   9    6999.       1039.       1039.       1039.       1040.       1041.       1042.       1043.       1044.       6999.    
  10    6999.       1031.       1032.       1033.       1034.       1035.       1037.       1038.       1039.       1042.    
  11    6999.       1021.       1023.       1027.       1029.       1030.       1032.       1034.       1036.       6999.    
  12    1001.       1009.       1015.       1020.       1023.       1026.       1029.       1030.       1034.       6999.    
  13    994.5      1000.0       1007.       1013.       1019.       1024.       1029.       1034.       1036.       6999.    
  14    6999.       1004.       1009.       1014.       1019.       1024.       1029.       1035.       1039.       6999.    
  15    6999.       6999.       1012.       1015.       1019.       1022.       6999.       6999.       6999.       6999.    

 OUTPUT CONTROL IS SPECIFIED ONLY AT TIME STEPS FOR WHICH OUTPUT IS DESIRED
 HEADS WILL BE SAVED WITH FORMAT: (10F10.3)           
 SAVED HEADS WILL BE LABELED
 HEAD PRINT FORMAT CODE IS   4    DRAWDOWN PRINT FORMAT CODE IS   0
 HEADS WILL BE SAVED ON UNIT   58    DRAWDOWNS WILL BE SAVED ON UNIT    0
 # MODFLOW-NWT

 NWT1 -- Newton Solver, VERSION 1.1.4, 4/01/2018
         INPUT READ FROM UNIT 13

 SPECIFIED OPTION:
 SOLVER INPUT VALUES ARE SPECIFIED BY USER
 ***XMD linear solver will be used***
 
   CONVERGENCE CRITERION OF   0.100000E-03 FOR HEAD SOLUTION
   AND A TOLERANCE OF   0.100000E+01 FOR FLOW SOLUTION AND 
   A MAXIMUM OF   500 OUTER ITERATIONS. 


   D-B-D REDUCTION FACTOR OF    0.960000E+00 AND 
   A D-B-D INCREASE FACTOR OF    0.100000E+00 AND 
   A D-B-D RELAXATION OF    0.000000E+00 AND 
   A MOMENTUM FACTOR OF    0.100000E+00 .


 ***BACKTRACKING IS INACTIVE***
 XMD -- LINEAR SOLUTION BY XMD PACKAGE VERSION 1.30
     BY MOTOMU IBARAKI, OHIO STATE UNIVERSITY, COLOMBUS, OH
                 INPUT READ FROM UNIT 13
 ACCELERATION METHOD                    (IACL) =         1
 NODE ORDERING FLAG                   (NORDER) =         1
 LEVEL OF FILL                         (LEVEL) =         5
 MAXIMUM NUMBER OF ORTHOGONALIZATIONS  (NORTH) =         7
 INDEX FOR USING REDUCED SYSTEM      (IREDSYS) =         1
 RESID. REDUCTION CONVERGE CRITERION  (RRCTOL) =  0.000000E+00
 INDEX FOR USING DROP TOLERANCE     (IDROPTOL) =         0
 DROP TOLERANCE VALUE                  (EPSRN) =  0.500000E-02
 CONVERGENCE CRITERIA OF           (HCLOSEXMD) =  0.100000E-02
 MAX. NUMBER OF LINEAR ITERATIONS  (MXITERXMD) =        50


 UPW1 -- UPSTREAM WEIGHTING FLOW PACKAGE, VERSION 1.1.4, 4/01/2018
         INPUT READ FROM UNIT  7

 #Layer-Property Flow Package input for test simulation 2
 No named parameters

   LAYER FLAGS:
 LAYER       LAYTYP          LAYAVG    CHANI           LAYVKA           LAYWET
 ---------------------------------------------------------------------------
    1             1             0     1.000E+00             0             0
    2             1             0     1.000E+00             0             0

   INTERPRETATION OF LAYER FLAGS:
                        INTERBLOCK     HORIZONTAL    DATA IN
         LAYER TYPE   TRANSMISSIVITY   ANISOTROPY   ARRAY VKA   WETTABILITY
 LAYER   (LAYTYP)        (LAYAVG)      (CHANI)     (LAYVKA)       (LAYWET)
 ---------------------------------------------------------------------------
    1   CONVERTIBLE      HARMONIC     1.000E+00    VERTICAL K  NON-WETTABLE
    2   CONVERTIBLE      HARMONIC     1.000E+00    VERTICAL K  NON-WETTABLE



              HYD. COND. ALONG ROWS FOR LAYER   1
 READING ON UNIT    7 WITH FORMAT: (10F5.0)            

            1           2           3           4           5           6           7           8           9          10
 ........................................................................................................................
   1   2.0000E-03  2.0000E-03   0.000       0.000       0.000       0.000       0.000       0.000       0.000       0.000    
   2   4.0000E-04  2.0000E-03  2.0000E-03   0.000       0.000      4.0000E-04  4.0000E-04  4.0000E-04   0.000       0.000    
   3    0.000      4.0000E-04  2.0000E-03  2.0000E-03  4.0000E-04  4.0000E-04  4.0000E-04  4.0000E-04   0.000       0.000    
   4   4.0000E-04  4.0000E-04  4.0000E-04  2.0000E-03  2.0000E-03  2.0000E-03  4.0000E-04  4.0000E-04  4.0000E-04   0.000    
   5   4.0000E-04  4.0000E-04  4.0000E-04  2.0000E-03  2.0000E-03  2.0000E-03  2.0000E-03  2.0000E-03  2.0000E-03  2.0000E-03
   6   4.0000E-04  4.0000E-04  4.0000E-04  2.0000E-03  2.0000E-03  2.0000E-03  2.0000E-03  2.0000E-03  4.0000E-04  4.0000E-04
   7   4.0000E-04  4.0000E-04  4.0000E-04  2.0000E-03  2.0000E-03  2.0000E-03  2.0000E-03  2.0000E-03  4.0000E-04   0.000    
   8    0.000      4.0000E-04  4.0000E-04  2.0000E-03  2.0000E-03  2.0000E-03  2.0000E-03  4.0000E-04  4.0000E-04   0.000    
   9    0.000      4.0000E-04  4.0000E-04  2.0000E-03  2.0000E-03  2.0000E-03  2.0000E-03  4.0000E-04  4.0000E-04   0.000    
  10    0.000      4.0000E-04  4.0000E-04  2.0000E-03  2.0000E-03  2.0000E-03  2.0000E-03  4.0000E-04  4.0000E-04  4.0000E-04
  11    0.000      4.0000E-04  4.0000E-04  2.0000E-03  2.0000E-03  2.0000E-03  2.0000E-03  4.0000E-04  4.0000E-04   0.000    
  12   4.0000E-04  4.0000E-04  2.0000E-03  2.0000E-03  2.0000E-03  2.0000E-03  2.0000E-03  4.0000E-04  4.0000E-04   0.000    
  13   2.0000E-03  2.0000E-03  2.0000E-03  2.0000E-03  2.0000E-03  2.0000E-03  2.0000E-03  2.0000E-03  2.0000E-03   0.000    
  14    0.000      4.0000E-04  4.0000E-04  4.0000E-04  4.0000E-04  4.0000E-04  4.0000E-04  4.0000E-04  2.0000E-03   0.000    
  15    0.000       0.000      4.0000E-04  4.0000E-04  4.0000E-04  4.0000E-04   0.000       0.000       0.000       0.000    

      VERTICAL HYD. COND. =  1.000000E-06 FOR LAYER   1

         SPECIFIC STORAGE =  1.000000E-06 FOR LAYER   1



                     SPECIFIC YIELD FOR LAYER   1
 READING ON UNIT    7 WITH FORMAT: (10F5.0)            

            1           2           3           4           5           6           7           8           9          10
 ........................................................................................................................
   1   0.2000      0.2000       0.000       0.000       0.000       0.000       0.000       0.000       0.000       0.000    
   2   0.1000      0.2000      0.2000       0.000       0.000      0.1000      0.1000      0.1000       0.000       0.000    
   3    0.000      0.1000      0.2000      0.2000      0.1000      0.1000      0.1000      0.1000       0.000       0.000    
   4   0.1000      0.1000      0.1000      0.2000      0.2000      0.2000      0.1000      0.1000      0.1000       0.000    
   5   0.1000      0.1000      0.1000      0.2000      0.2000      0.2000      0.2000      0.2000      0.2000      0.2000    
   6   0.1000      0.1000      0.1000      0.2000      0.2000      0.2000      0.2000      0.2000      0.1000      0.1000    
   7   0.1000      0.1000      0.1000      0.2000      0.2000      0.2000      0.2000      0.2000      0.1000       0.000    
   8    0.000      0.1000      0.1000      0.2000      0.2000      0.2000      0.2000      0.1000      0.1000       0.000    
   9    0.000      0.1000      0.1000      0.2000      0.2000      0.2000      0.2000      0.1000      0.1000       0.000    
  10    0.000      0.1000      0.1000      0.2000      0.2000      0.2000      0.2000      0.1000      0.1000      0.1000    
  11    0.000      0.1000      0.1000      0.2000      0.2000      0.2000      0.2000      0.1000      0.1000       0.000    
  12   0.1000      0.1000      0.2000      0.2000      0.2000      0.2000      0.2000      0.1000      0.1000       0.000    
  13   0.2000      0.2000      0.2000      0.2000      0.2000      0.2000      0.2000      0.2000      0.2000       0.000    
  14    0.000      0.1000      0.1000      0.1000      0.1000      0.1000      0.1000      0.1000      0.2000       0.000    
  15    0.000       0.000      0.1000      0.1000      0.1000      0.1000       0.000       0.000       0.000       0.000    



              HYD. COND. ALONG ROWS FOR LAYER   2
 READING ON UNIT    7 WITH FORMAT: (10F5.0)            

            1           2           3           4           5           6           7           8           9          10
 ........................................................................................................................
   1   2.0000E-03  2.0000E-03   0.000       0.000       0.000       0.000       0.000       0.000       0.000       0.000    
   2   4.0000E-04  2.0000E-03  2.0000E-03   0.000       0.000      4.0000E-04  4.0000E-04  4.0000E-04   0.000       0.000    
   3    0.000      4.0000E-04  2.0000E-03  2.0000E-03  4.0000E-04  4.0000E-04  4.0000E-04  4.0000E-04   0.000       0.000    
   4   4.0000E-04  4.0000E-04  4.0000E-04  2.0000E-03  2.0000E-03  2.0000E-03  4.0000E-04  4.0000E-04  4.0000E-04   0.000    
   5   4.0000E-04  4.0000E-04  4.0000E-04  2.0000E-03  2.0000E-03  2.0000E-03  2.0000E-03  2.0000E-03  2.0000E-03  2.0000E-03
   6   4.0000E-04  4.0000E-04  4.0000E-04  2.0000E-03  2.0000E-03  2.0000E-03  2.0000E-03  2.0000E-03  4.0000E-04  4.0000E-04
   7   4.0000E-04  4.0000E-04  4.0000E-04  2.0000E-03  2.0000E-03  2.0000E-03  2.0000E-03  2.0000E-03  4.0000E-04   0.000    
   8    0.000      4.0000E-04  4.0000E-04  2.0000E-03  2.0000E-03  2.0000E-03  2.0000E-03  4.0000E-04  4.0000E-04   0.000    
   9    0.000      4.0000E-04  4.0000E-04  2.0000E-03  2.0000E-03  2.0000E-03  2.0000E-03  4.0000E-04  4.0000E-04   0.000    
  10    0.000      4.0000E-04  4.0000E-04  2.0000E-03  2.0000E-03  2.0000E-03  2.0000E-03  4.0000E-04  4.0000E-04  4.0000E-04
  11    0.000      4.0000E-04  4.0000E-04  2.0000E-03  2.0000E-03  2.0000E-03  2.0000E-03  4.0000E-04  4.0000E-04   0.000    
  12   4.0000E-04  4.0000E-04  2.0000E-03  2.0000E-03  2.0000E-03  2.0000E-03  2.0000E-03  4.0000E-04  4.0000E-04   0.000    
  13   2.0000E-03  2.0000E-03  2.0000E-03  2.0000E-03  2.0000E-03  2.0000E-03  2.0000E-03  2.0000E-03  2.0000E-03   0.000    
  14    0.000      4.0000E-04  4.0000E-04  4.0000E-04  4.0000E-04  4.0000E-04  4.0000E-04  4.0000E-04  2.0000E-03   0.000    
  15    0.000       0.000      4.0000E-04  4.0000E-04  4.0000E-04  4.0000E-04   0.000       0.000       0.000       0.000    

      VERTICAL HYD. COND. =  1.000000E-06 FOR LAYER   2

         SPECIFIC STORAGE =  1.000000E-06 FOR LAYER   2



                     SPECIFIC YIELD FOR LAYER   2
 READING ON UNIT    7 WITH FORMAT: (10F5.0)            

            1           2           3           4           5           6           7           8           9          10
 ........................................................................................................................
   1   0.2000      0.2000       0.000       0.000       0.000       0.000       0.000       0.000       0.000       0.000    
   2   0.1000      0.2000      0.2000       0.000       0.000      0.1000      0.1000      0.1000       0.000       0.000    
   3    0.000      0.1000      0.2000      0.2000      0.1000      0.1000      0.1000      0.1000       0.000       0.000    
   4   0.1000      0.1000      0.1000      0.2000      0.2000      0.2000      0.1000      0.1000      0.1000       0.000    
   5   0.1000      0.1000      0.1000      0.2000      0.2000      0.2000      0.2000      0.2000      0.2000      0.2000    
   6   0.1000      0.1000      0.1000      0.2000      0.2000      0.2000      0.2000      0.2000      0.1000      0.1000    
   7   0.1000      0.1000      0.1000      0.2000      0.2000      0.2000      0.2000      0.2000      0.1000       0.000    
   8    0.000      0.1000      0.1000      0.2000      0.2000      0.2000      0.2000      0.1000      0.1000       0.000    
   9    0.000      0.1000      0.1000      0.2000      0.2000      0.2000      0.2000      0.1000      0.1000       0.000    
  10    0.000      0.1000      0.1000      0.2000      0.2000      0.2000      0.2000      0.1000      0.1000      0.1000    
  11    0.000      0.1000      0.1000      0.2000      0.2000      0.2000      0.2000      0.1000      0.1000       0.000    
  12   0.1000      0.1000      0.2000      0.2000      0.2000      0.2000      0.2000      0.1000      0.1000       0.000    
  13   0.2000      0.2000      0.2000      0.2000      0.2000      0.2000      0.2000      0.2000      0.2000       0.000    
  14    0.000      0.1000      0.1000      0.1000      0.1000      0.1000      0.1000      0.1000      0.2000       0.000    
  15    0.000       0.000      0.1000      0.1000      0.1000      0.1000       0.000       0.000       0.000       0.000    

 WEL -- WELL PACKAGE FOR NWT VERSION 1.1.4,  4/01/2018 INPUT READ FROM UNIT   16
 #Well Package input for test simulation 2
 No named parameters
 MAXIMUM OF     10 ACTIVE WELLS AT ONE TIME
 CELL-BY-CELL FLOWS WILL BE PRINTED WHEN ICBCFL NOT 0
 No named parameters


     0 Well parameters

 GHB -- GENERAL-HEAD BOUNDARY PACKAGE, VERSION 7, 5/2/2005
         INPUT READ FROM UNIT   17
 No named parameters
 MAXIMUM OF      2 ACTIVE GHB CELLS AT ONE TIME
 CELL-BY-CELL FLOWS WILL BE PRINTED WHEN ICBCFL NOT 0


     0 GHB parameters

 SFR7 -- STREAMFLOW ROUTING PACKAGE, VERSION 1.0.5, 2012-04-05
         INPUT READ FROM UNIT  15
 #SFR2 Package input for Test Simulation 2
 No named parameters


 NUMBER OF STREAM REACHES IS   36

 NUMBER OF STREAM SEGMENTS IS    8

 NUMBER OF STREAM PARAMETERS IS    0

 NUMBER OF STREAM SEGMENTS DEFINED USING PARAMETERS IS              0

 MAXIMUM ERROR FOR STREAM LEAKAGE RATES IS  1.00E-06

 CONSTANT FOR MANNINGS EQUATION IS  1.4860E+00



 STREAM OUTPUT WILL BE WRITTEN TO FILE ON UNIT   81


   STREAM NETWORK DESCRIPTION: 

   LAYER    ROW    COL   SEGMENT   REACH     LENGTH
                          NUMBER   NUMBER    IN CELL        
   --------------------------------------------------
      1      1      1       1        1    4.5000E+03
      1      2      2       1        2    7.0000E+03
      1      3      3       1        3    6.0000E+03
      1      3      4       1        4    5.5500E+03
      1      4      5       2        1    6.5000E+03
      1      5      6       2        2    5.0000E+03
      1      6      6       2        3    5.0000E+03
      1      7      6       2        4    5.0000E+03
      1      8      6       2        5    5.0000E+03
      1      3      5       3        1    5.0000E+03
      1      3      6       3        2    5.0000E+03
      1      3      7       3        3    4.5000E+03
      1      4      8       3        4    6.0000E+03
      1      5      8       3        5    5.0000E+03
      1      6      8       3        6    2.0000E+03
      1      5     10       4        1    2.5000E+03
      1      5      9       4        2    5.0000E+03
      1      6      8       4        3    3.5000E+03
      1      6      8       5        1    4.0000E+03
      1      7      7       5        2    5.0000E+03
      1      8      7       5        3    3.5000E+03
      1      8      6       5        4    2.5000E+03
      1      9      6       6        1    5.0000E+03
      1     10      7       6        2    5.0000E+03
      1     11      7       6        3    5.0000E+03
      1     12      7       6        4    5.0000E+03
      1     13      7       6        5    2.0000E+03
      1     14      9       7        1    5.0000E+03
      1     13      8       7        2    5.5000E+03
      1     13      7       7        3    5.0000E+03
      1     13      6       8        1    5.0000E+03
      1     13      5       8        2    5.0000E+03
      1     13      4       8        3    5.0000E+03
      1     13      3       8        4    5.0000E+03
      1     13      2       8        5    5.0000E+03
      1     13      1       8        6    3.0000E+03




 UZF1 -- UNSATURATED FLOW PACKAGE, VERSION 1.5, 09/10/2019
         INPUT READ FROM UNIT 19
 #UZF Package input for test simulation 2
 No named parameters



            AREAL EXTENT OF UZ FLOW
 READING ON UNIT   19 WITH FORMAT: (FREE)              

                1           2           3           4           5           6           7           8           9          10
 ............................................................................................................................
   1            1           1           0           0           0           0           0           0           0           0
   2            1           1           1           0           0           1           1           1           0           0
   3            0           1           1           1           1           1           1           1           0           0
   4            1           1           1           1           1           1           1           1           1           0
   5            1           1           1           1           1           1           1           1           1           1
   6            1           1           1           1           1           1           1           1           1           1
   7            1           1           1           1           1           1           1           1           1           0
   8            0           1           1           1           1           1           1           1           1           0
   9            0           1           1           1           1           1           1           1           1           0
  10            0           1           1           1           1           1           1           1           1           1
  11            0           1           1           1           1           1           1           1           1           0
  12            1           1           1           1           1           1           1           1           1           0
  13            1           1           1           1           1           1           1           1           1           0
  14            0           1           1           1           1           1           1           1           1           0
  15            0           0           1           1           1           1           0           0           0           0
 OPTION 4 -- RECHARGE IN UZF TO HIGHEST CELL WITH WATER TABLE



            ROUTING OVERLAND RUNOFF
 READING ON UNIT   19 WITH FORMAT: (FREE)              

                1           2           3           4           5           6           7           8           9          10
 ............................................................................................................................
   1            1           1           0           0           0           0           0           0           0           0
   2            1           1           1           0           0           3           3           3           0           0
   3            0           1           1           1           3           3           3           3           0           0
   4            8           8           2           2           2           2           2           3           3           0
   5            8           8           8           8           2           2           2           3           4           4
   6            8           8           8           8           8           2           2           4           4           4
   7            8           8           8           8           8           2           5           5           5           0
   8            0           8           8           8           8           2           5           5           5           0
   9            0           8           8           8           8           6           6           6           6           0
  10            0           8           8           8           8           6           6           6           6           6
  11            0           8           8           8           8           8           6           6           7           0
  12            8           8           8           8           8           8           6           7           7           0
  13            8           8           8           8           8           8           7           7           7           0
  14            0           8           8           8           8           8           7           7           7           0
  15            0           0           8           8           8           8           0           0           0           0



               SATURATED VERTICAL K
 READING ON UNIT   19 WITH FORMAT: (10F4.0)            

            1           2           3           4           5           6           7           8           9          10
 ........................................................................................................................
   1   1.0000E-06  1.0000E-06   0.000       0.000       0.000       0.000       0.000       0.000       0.000       0.000    
   2   1.0000E-06  1.0000E-06  1.0000E-06   0.000       0.000      1.0000E-06  1.0000E-06  1.0000E-06   0.000       0.000    
   3    0.000      1.0000E-06  1.0000E-06  1.0000E-06  1.0000E-06  1.0000E-06  1.0000E-06  1.0000E-06   0.000       0.000    
   4   1.0000E-06  1.0000E-06  1.0000E-06  1.0000E-06  1.0000E-06  1.0000E-06  1.0000E-06  1.0000E-06  1.0000E-06   0.000    
   5   1.0000E-06  1.0000E-06  1.0000E-06  1.0000E-06  1.0000E-06  1.0000E-06  1.0000E-06  1.0000E-06  1.0000E-06  1.0000E-06
   6   1.0000E-06  1.0000E-06  1.0000E-06  1.0000E-06  1.0000E-06  1.0000E-06  1.0000E-06  1.0000E-06  1.0000E-06  1.0000E-06
   7   1.0000E-06  1.0000E-06  1.0000E-06  1.0000E-06  1.0000E-06  1.0000E-06  1.0000E-06  1.0000E-06  1.0000E-06   0.000    
   8    0.000      1.0000E-06  1.0000E-06  1.0000E-06  1.0000E-06  1.0000E-06  1.0000E-06  1.0000E-06  1.0000E-06   0.000    
   9    0.000      1.0000E-06  1.0000E-06  1.0000E-06  1.0000E-06  1.0000E-06  1.0000E-06  1.0000E-06  1.0000E-06   0.000    
  10    0.000      1.0000E-06  1.0000E-06  1.0000E-06  1.0000E-06  1.0000E-06  1.0000E-06  1.0000E-06  1.0000E-06  1.0000E-06
  11    0.000      1.0000E-06  1.0000E-06  1.0000E-06  1.0000E-06  1.0000E-06  1.0000E-06  1.0000E-06  1.0000E-06   0.000    
  12   1.0000E-06  1.0000E-06  1.0000E-06  1.0000E-06  1.0000E-06  1.0000E-06  1.0000E-06  1.0000E-06  1.0000E-06   0.000    
  13   1.0000E-06  1.0000E-06  1.0000E-06  1.0000E-06  1.0000E-06  1.0000E-06  1.0000E-06  1.0000E-06  1.0000E-06   0.000    
  14    0.000      1.0000E-06  1.0000E-06  1.0000E-06  1.0000E-06  1.0000E-06  1.0000E-06  1.0000E-06  1.0000E-06   0.000    
  15    0.000       0.000      1.0000E-06  1.0000E-06  1.0000E-06  1.0000E-06   0.000       0.000       0.000       0.000    

     BROOKS-COREY EPSILON =   3.50000    

  SATURATED WATER CONTENT =  0.300000    

UNSATURATED FLOW RESULTS WILL BE PRINTED TO SEPARATE FILES FOR SELECTED MODEL CELLS, AND TIME STEPS AS DEFINED BY OUTPUT CONTROL PACKAGE 

SELECTED MODEL CELLS ARE: 
 ROW NUMBER  COLUMN NUMBER  FORTRAN UNIT NUMBER  OUTPUT OPTION


       3             6                 65                 1
       6             3                 66                 2
      10             5                 67                 3
       0             0                 68                 4



   9 GAGING STATIONS WERE SPECIFIED.
     (Lakes are identified by a negative value of the Lake Number)
     RECORDS WILL BE WRITTEN TO SEPARATE OUTPUT FILES REPRESENTED BY FOLLOWING UNIT NUMBERS:

 Stream Gages:
  GAGE #   SEGMENT   REACH   UNIT   OUTTYPE
       1       1       4      83       1
       2       2       3      84       1
       3       3       5      85       1
       4       4       3      86       1
       5       5       4      87       4
       6       6       5      88       4
       7       7       3      89       4
       8       8       6      90       4
       9       3       1      91       5




1
                            STRESS PERIOD NO.    1, LENGTH =   2628000.    
                            -----------------------------------------------

                              NUMBER OF TIME STEPS =     1

                               MULTIPLIER FOR DELT =     1.000

                            INITIAL TIME STEP SIZE =   2628000.    

 WELL NO.  LAYER   ROW   COL   STRESS RATE         
 --------------------------------------------------
      1      1      6      4      -2.000    
      2      1      6      5      -2.000    
      3      1      7      4      -2.000    
      4      1      7      5      -2.000    
      5      1      8      4      -2.000    
      6      1      8      5      -2.000    
      7      1      9      4      -2.000    
      8      1      9      5      -2.000    
      9      1     10      4      -2.000    
     10      1     10      5      -2.000    

     10 WELLS

 BOUND. NO. LAYER   ROW   COL     STAGE      CONDUCTANCE         
 ----------------------------------------------------------------
      1      1     13      1       988.0          0.3800E-01
      2      1     14      9       1045.          0.3800E-01

      2 GHB CELLS



 CLASSIFICATION & COUNT OF STREAM SEGMENTS BASED ON SOURCE OF INFLOW:

                HEADWATER     DIVERSION     RECEIVES TRIBUTARY FLOW
                ---------     ---------     -----------------------
                     3              1               4



                    INPUT DATA FOR EACH STREAM SEGMENT
 ---------------------------------------------------------------------------------------------

 SEGMENT    SEG.     INFLOW   OVERLAND   STREAM    STREAM   ICALC  OUTFLOW  DIVERSION PRIORITY
    NO.    LENGTH     RATE     RUNOFF      ET       PPT.    METH.  TO SEG.  FROM SEG.    NO.

      1  2.305E+04 2.500E+01 0.000E+00 0.000E+00 0.000E+00    4        2        0        0
      2  2.650E+04 0.000E+00 0.000E+00 0.000E+00 0.000E+00    1        6        0        0
      3  2.750E+04 1.000E+01 0.000E+00 0.000E+00 0.000E+00    0        5        1        0
      4  1.100E+04 1.000E+01 0.000E+00 0.000E+00 0.000E+00    1        5        0        0
      5  1.500E+04 0.000E+00 0.000E+00 0.000E+00 0.000E+00    3        6        0        0
      6  2.200E+04 0.000E+00 0.000E+00 0.000E+00 0.000E+00    1        8        0        0
      7  1.550E+04 1.500E+02 0.000E+00 0.000E+00 0.000E+00    2        8        0        0
      8  2.800E+04 0.000E+00 0.000E+00 0.000E+00 0.000E+00    2        0        0        0


         STREAMBED PROPERTIES AND STREAM DIMENSIONS

 SEGMENT     BED HYD. COND.      BED THICKNESS     ELEV.-TOP OF BED     WIDTH OF STREAM     DEPTH OF STREAM    STREAM ROUGHNESS
    No.     UPPER     LOWER     UPPER     LOWER     UPPER     LOWER     UPPER     LOWER     UPPER     LOWER   CHANNEL      BANK

     1  3.000E-05 3.000E-05 3.000E+00 3.000E+00 1.095E+03 1.075E+03
     2  3.000E-05 3.000E-05 3.000E+00 3.000E+00 1.075E+03 1.050E+03 1.200E+01 1.200E+01                     3.000E-02
     3  3.000E-05 3.000E-05 2.000E+00 2.000E+00 1.075E+03 1.060E+03 1.000E+01 6.000E+00 2.000E+00 1.000E+00
     4  3.000E-05 3.000E-05 3.000E+00 3.000E+00 1.080E+03 1.060E+03 1.000E+01 1.000E+01                     3.000E-02
     5  3.000E-05 3.000E-05 3.000E+00 3.000E+00 1.060E+03 1.045E+03
     6  3.000E-05 3.000E-05 3.000E+00 3.000E+00 1.045E+03 1.025E+03 1.200E+01 1.200E+01                     3.000E-02
     7  6.000E-05 6.000E-05 3.000E+00 3.000E+00 1.040E+03 1.025E+03                                         2.500E-02 4.500E-02
     8  6.000E-05 6.000E-05 3.000E+00 3.000E+00 1.025E+03 9.900E+02                                         2.500E-02 4.500E-02

  EIGHT POINT CROSS-SECTION DATA FOR SEGMENTS WITH ICALC = 2
    X VALUES X VALUES START FROM LEFT SIDE LOOKING DOWNSTREAM

     SEGMENT NO.        X1        X2        X3        X4        X5        X6        X7        X8
            7      0.000E+00 1.000E+01 8.000E+01 1.000E+02 1.500E+02 1.700E+02 2.400E+02 2.500E+02
            8      0.000E+00 1.000E+01 8.000E+01 1.000E+02 1.500E+02 1.700E+02 2.400E+02 2.500E+02

    Z VALUES ARE RELATIVE TO STREAMBED ELEVATION

     SEGMENT NO.          Z1        Z2        Z3        Z4        Z5        Z6        Z7        Z8
            7      2.000E+01 1.300E+01 1.000E+01 2.000E+00 0.000E+00 1.000E+01 1.300E+01 2.000E+01
            8      2.500E+01 1.700E+01 1.300E+01 4.000E+00 0.000E+00 1.000E+01 1.600E+01 2.000E+01

 STREAMFLOW RELATION WITH DEPTH IS BASED ON EQUATION Q = CDPTH*(DEPTH)**FDPTH
 STREAMFLOW RELATION WITH WIDTH IS BASED ON EQUATION Q = AWDTH*(WIDTH)**BWDTH

 SEGMENT NO.      CDPTH     FDPTH    AWDTH     BWDTH

          5 3.000E-01 3.500E-01 3.800E+00 6.000E-01

 STREAMFLOW RELATION WITH DEPTH AND WIDTH IS BASED ON TABULATED VALUES

  SEGMENT NO.   STREAMFLOW       DEPTH       WIDTH

          1     5.0000E-01   2.5000E-01   3.0000E+00
          1     1.0000E+00   4.0000E-01   3.5000E+00
          1     2.0000E+00   5.5000E-01   4.2000E+00
          1     4.0000E+00   7.0000E-01   5.3000E+00
          1     7.0000E+00   8.0000E-01   7.0000E+00
          1     1.0000E+01   9.0000E-01   8.5000E+00
          1     2.0000E+01   1.1000E+00   1.2000E+01
          1     3.0000E+01   1.2500E+00   1.4000E+01
          1     5.0000E+01   1.4000E+00   1.7000E+01
          1     7.5000E+01   1.7000E+00   2.0000E+01
          1     1.0000E+02   1.8000E+00   2.2000E+01






            AREAL INFILTRATION RATE
 READING ON UNIT   19 WITH FORMAT: (10F4.0)            

            1           2           3           4           5           6           7           8           9          10
 ........................................................................................................................
   1   1.0000E-09  2.0000E-09   0.000       0.000       0.000       0.000       0.000       0.000       0.000       0.000    
   2   2.0000E-09  1.0000E-09  2.0000E-09   0.000       0.000      8.0000E-09  8.0000E-09  5.0000E-09   0.000       0.000    
   3    0.000      5.0000E-09  1.0000E-09  1.0000E-09  8.0000E-09  8.0000E-09  5.0000E-09  5.0000E-09   0.000       0.000    
   4   8.0000E-09  5.0000E-09  1.0000E-09  1.0000E-09  1.0000E-09  1.0000E-09  1.0000E-09  1.0000E-09  2.0000E-09   0.000    
   5   8.0000E-09  5.0000E-09  1.0000E-09  1.0000E-09  1.0000E-09  1.0000E-09  1.0000E-09  1.0000E-09  1.0000E-09  1.0000E-09
   6   8.0000E-09  5.0000E-09  5.0000E-09  2.0000E-09  2.0000E-09  1.0000E-09  1.0000E-09  1.0000E-09  1.0000E-09  5.0000E-09
   7   8.0000E-09  5.0000E-09  5.0000E-09  2.0000E-09  2.0000E-09  1.0000E-09  1.0000E-09  2.0000E-09  2.0000E-09   0.000    
   8    0.000      5.0000E-09  5.0000E-09  2.0000E-09  2.0000E-09  1.0000E-09  1.0000E-09  2.0000E-09  5.0000E-09   0.000    
   9    0.000      5.0000E-09  5.0000E-09  2.0000E-09  2.0000E-09  1.0000E-09  1.0000E-09  2.0000E-09  5.0000E-09   0.000    
  10    0.000      5.0000E-09  5.0000E-09  2.0000E-09  2.0000E-09  1.0000E-09  1.0000E-09  2.0000E-09  5.0000E-09  8.0000E-09
  11    0.000      1.0000E-09  1.0000E-09  1.0000E-09  1.0000E-09  1.0000E-09  1.0000E-09  2.0000E-09  5.0000E-09   0.000    
  12   1.0000E-09  1.0000E-09  1.0000E-09  1.0000E-09  1.0000E-09  1.0000E-09  1.0000E-09  1.0000E-09  2.0000E-09   0.000    
  13   1.0000E-09  1.0000E-09  2.0000E-09  2.0000E-09  2.0000E-09  2.0000E-09  2.0000E-09  1.0000E-09  1.0000E-09   0.000    
  14    0.000      2.0000E-09  5.0000E-09  5.0000E-09  5.0000E-09  5.0000E-09  5.0000E-09  2.0000E-09  1.0000E-09   0.000    
  15    0.000       0.000      8.0000E-09  8.0000E-09  8.0000E-09  8.0000E-09   0.000       0.000       0.000       0.000    

                  ET RATE =  5.000000E-08

      ET EXTINCTION DEPTH =   15.0000    



           EXTINCTION WATER CONTENT
 READING ON UNIT   19 WITH FORMAT: (10F4.0)            

            1           2           3           4           5           6           7           8           9          10
 ........................................................................................................................
   1   0.1000      0.1000       0.000       0.000       0.000       0.000       0.000       0.000       0.000       0.000    
   2   0.2000      0.1000      0.1000       0.000       0.000      0.2000      0.2000      0.2000       0.000       0.000    
   3    0.000      0.2000      0.1000      0.1000      0.2000      0.2000      0.2000      0.2000       0.000       0.000    
   4   0.2000      0.2000      0.2000      0.1000      0.1000      0.1000      0.2000      0.2000      0.2000      0.1000    
   5   0.2000      0.2000      0.2000      0.1000      0.1000      0.1000      0.1000      0.1000      0.1000      0.1000    
   6   0.2000      0.2000      0.2000      0.1000      0.1000      0.1000      0.1000      0.1000      0.2000      0.2000    
   7   0.2000      0.2000      0.2000      0.1000      0.1000      0.1000      0.1000      0.1000      0.2000       0.000    
   8    0.000      0.2000      0.2000      0.1000      0.1000      0.1000      0.1000      0.2000      0.2000       0.000    
   9    0.000      0.2000      0.2000      0.1000      0.1000      0.1000      0.1000      0.2000      0.2000       0.000    
  10    0.000      0.2000      0.2000      0.1000      0.1000      0.1000      0.1000      0.2000      0.2000      0.2000    
  11    0.000      0.2000      0.2000      0.1000      0.1000      0.1000      0.1000      0.2000      0.2000       0.000    
  12   0.2000      0.2000      0.1000      0.1000      0.1000      0.1000      0.1000      0.2000      0.2000       0.000    
  13   0.1000      0.1000      0.1000      0.1000      0.1000      0.1000      0.1000      0.1000      0.1000       0.000    
  14    0.000      0.2000      0.2000      0.2000      0.2000      0.2000      0.2000      0.2000      0.1000       0.000    
  15    0.000       0.000      0.2000      0.2000      0.2000      0.2000       0.000       0.000       0.000       0.000    
 
 SOLVING FOR HEAD 
                                                   Max.-Head-Change                         Max.-Flux-Residual
  Residual-Control   Outer-Iter.   Inner-Iter.     Column Row Layer    Maximum-Head-Change  Column Row Layer    Maximum-Flux-Residual          L2-NORM 
          0                 1           4             4    7     1      -0.2160450612E+02       4   13    2         0.5130048276E+01      0.1508802457E+02
          0                 2           3             3   15     2      -0.3399289777E+01       6    6    1        -0.7377279494E+00      0.1958277841E+01
          0                 3           3             7   12     1      -0.1353362811E+01       7   12    1        -0.5017008104E+00      0.5942480505E+00
          0                 4           3             7   11     1      -0.5876074464E+00       7   11    1        -0.2368346406E+00      0.2500761859E+00
          0                 5           3             7   11     1      -0.1506978156E+00       7   11    1        -0.5729571939E-01      0.5829194627E-01
          0                 6           2             7   11     1      -0.3839532227E-01       7   11    1        -0.1480566283E-01      0.1495736245E-01
          0                 7           2             7   11     1      -0.9820967560E-02       7   11    1        -0.3758583284E-02      0.3792487631E-02
          0                 8           2             7   11     1      -0.2513501735E-02       7   11    1        -0.9642310879E-03      0.9728435276E-03
          0                 9           1             7   11     1      -0.6419111482E-03       7   11    1        -0.2463251967E-03      0.2484416256E-03
          0                10           1             7   11     1      -0.1596164559E-03       7   11    1        -0.6095790667E-04      0.6153217563E-04
          0                11           1             7   11     1      -0.4608528977E-04       7   11    1        -0.1756063733E-04      0.1809130082E-04

    ------------------------------------------------
       NWT REQUIRED           11 OUTER ITERATIONS 
       AND A TOTAL OF         25 INNER ITERATIONS.
    ------------------------------------------------

 OUTPUT CONTROL FOR STRESS PERIOD    1   TIME STEP    1
    PRINT BUDGET
    SAVE BUDGET

            WELLS   PERIOD    1   STEP   1
 WELL      1   LAYER   1   ROW     6   COL     4   RATE    -2.00000    
 WELL      2   LAYER   1   ROW     6   COL     5   RATE    -2.00000    
 WELL      3   LAYER   1   ROW     7   COL     4   RATE    -2.00000    
 WELL      4   LAYER   1   ROW     7   COL     5   RATE    -2.00000    
 WELL      5   LAYER   1   ROW     8   COL     4   RATE    -2.00000    
 WELL      6   LAYER   1   ROW     8   COL     5   RATE    -2.00000    
 WELL      7   LAYER   1   ROW     9   COL     4   RATE    -2.00000    
 WELL      8   LAYER   1   ROW     9   COL     5   RATE    -2.00000    
 WELL      9   LAYER   1   ROW    10   COL     4   RATE    -2.00000    
 WELL     10   LAYER   1   ROW    10   COL     5   RATE    -2.00000    

  HEAD DEP BOUNDS   PERIOD    1   STEP     1
 BOUNDARY      1   LAYER   1   ROW    13   COL     1   RATE   -0.280512    
 BOUNDARY      2   LAYER   1   ROW    14   COL     9   RATE    0.207725    



 STREAM LISTING     PERIOD      1   STEP        1

 LAYER ROW COL. STREAM  RCH.  FLOW INTO     FLOW TO   FLOW OUT OF   OVRLND.     DIRECT     STREAM       STREAM     STREAM     STREAM   STREAMBED  STREAMBED
                SEG.NO.  NO.  STRM. RCH.    AQUIFER    STRM. RCH.    RUNOFF     PRECIP       ET          HEAD       DEPTH      WIDTH   CONDCTNC.   GRADIENT

   1    1    1     1     1    2.5000E+01  1.1998E+00   2.3800E+01  0.000E+00  0.000E+00  0.000E+00  1.09422E+03  1.171E+00  1.294E+01  5.824E-01  6.867E-01
   1    2    2     1     2    2.3800E+01  2.7459E+00   2.1054E+01  0.000E+00  0.000E+00  0.000E+00  1.08920E+03  1.140E+00  1.253E+01  8.774E-01  1.043E+00
   1    3    3     1     3    2.1054E+01  2.9175E+00   1.8137E+01  0.000E+00  0.000E+00  0.000E+00  1.08351E+03  1.094E+00  1.188E+01  7.127E-01  1.365E+00
   1    3    4     1     4    1.8137E+01  2.4788E+00   1.5658E+01  0.000E+00  0.000E+00  0.000E+00  1.07846E+03  1.048E+00  1.103E+01  6.124E-01  1.349E+00
   1    4    5     2     1    5.6579E+00  2.6687E+00   2.9893E+00  0.000E+00  0.000E+00  0.000E+00  1.07236E+03  4.214E-01  1.200E+01  7.800E-01  1.140E+00
   1    5    6     2     2    2.9893E+00  1.9596E+00   1.0296E+00  0.000E+00  0.000E+00  0.000E+00  1.06678E+03  2.661E-01  1.200E+01  6.000E-01  1.089E+00
   1    6    6     2     3    1.0296E+00  1.0296E+00   0.0000E+00  0.000E+00  0.000E+00  0.000E+00  1.06183E+03  4.008E-02  1.200E+01  6.000E-01  1.013E+00
   1    7    6     2     4    0.0000E+00  0.0000E+00   0.0000E+00  0.000E+00  0.000E+00  0.000E+00  1.05708E+03  0.000E+00  1.200E+01  6.000E-01  1.000E+00
   1    8    6     2     5    0.0000E+00  0.0000E+00   0.0000E+00  0.000E+00  0.000E+00  0.000E+00  1.05236E+03  0.000E+00  1.200E+01  6.000E-01  1.000E+00
   1    3    5     3     1    1.0000E+01  2.0728E+00   7.9272E+00  0.000E+00  0.000E+00  0.000E+00  1.07555E+03  1.909E+00  9.636E+00  7.227E-01  1.434E+00
   1    3    6     3     2    7.9272E+00  1.8472E+00   6.0800E+00  0.000E+00  0.000E+00  0.000E+00  1.07264E+03  1.727E+00  8.909E+00  6.682E-01  1.382E+00
   1    3    7     3     3    6.0800E+00  1.3281E+00   4.7519E+00  0.000E+00  0.000E+00  0.000E+00  1.06987E+03  1.555E+00  8.218E+00  5.547E-01  1.197E+00
   1    4    8     3     4    4.7519E+00  1.6835E+00   3.0684E+00  0.000E+00  0.000E+00  0.000E+00  1.06682E+03  1.364E+00  7.455E+00  6.709E-01  1.255E+00
   1    5    8     3     5    3.0684E+00  1.5790E+00   1.4894E+00  0.000E+00  0.000E+00  0.000E+00  1.06362E+03  1.164E+00  6.655E+00  4.991E-01  1.582E+00
   1    6    8     3     6    1.4894E+00  5.5980E-01   9.2965E-01  0.000E+00  0.000E+00  0.000E+00  1.06158E+03  1.036E+00  6.145E+00  1.844E-01  1.518E+00
   1    5   10     4     1    1.0000E+01  9.0525E-01   9.0947E+00  0.000E+00  0.000E+00  0.000E+00  1.07835E+03  6.210E-01  1.000E+01  2.500E-01  1.207E+00
   1    5    9     4     2    9.0947E+00  1.7835E+00   7.3113E+00  0.000E+00  0.000E+00  0.000E+00  1.07148E+03  5.670E-01  1.000E+01  5.000E-01  1.189E+00
   1    6    8     4     3    7.3113E+00  1.2257E+00   6.0855E+00  0.000E+00  0.000E+00  0.000E+00  1.06368E+03  5.021E-01  1.000E+01  3.500E-01  1.167E+00
   1    6    8     5     1    7.0152E+00  3.9219E-01   6.6230E+00  0.000E+00  0.000E+00  0.000E+00  1.05859E+03  5.874E-01  1.202E+01  4.809E-01  2.718E-01
   1    7    7     5     2    6.6230E+00  1.3115E+00   5.3115E+00  0.000E+00  0.000E+00  0.000E+00  1.05406E+03  5.606E-01  1.110E+01  5.549E-01  7.878E-01
   1    8    7     5     3    5.3115E+00  9.5885E-01   4.3527E+00  0.000E+00  0.000E+00  0.000E+00  1.04977E+03  5.207E-01  9.778E+00  3.422E-01  9.339E-01
   1    8    6     5     4    4.3527E+00  7.5788E-01   3.5948E+00  0.000E+00  0.000E+00  0.000E+00  1.04674E+03  4.862E-01  8.696E+00  2.174E-01  1.162E+00
   1    9    6     6     1    3.5948E+00  1.9884E+00   1.6063E+00  0.000E+00  0.000E+00  0.000E+00  1.04304E+03  3.141E-01  1.200E+01  6.000E-01  1.105E+00
   1   10    7     6     2    1.6063E+00  1.3388E+00   2.6756E-01  0.000E+00  0.000E+00  0.000E+00  1.03835E+03  1.702E-01  1.200E+01  6.000E-01  7.438E-01
   1   11    7     6     3    2.6756E-01  2.6756E-01   0.0000E+00  0.000E+00  0.000E+00  0.000E+00  1.03365E+03  1.806E-02  1.200E+01  6.000E-01  9.994E-01
   1   12    7     6     4    0.0000E+00  0.0000E+00   0.0000E+00  0.000E+00  0.000E+00  0.000E+00  1.02909E+03  0.000E+00  1.200E+01  6.000E-01  7.126E-01
   1   13    7     6     5    0.0000E+00 -7.9898E-01   7.9898E-01  0.000E+00  0.000E+00  0.000E+00  1.02601E+03  1.021E-01  1.200E+01  2.400E-01 -1.110E+00
   1   14    9     7     1    1.5000E+02  1.8647E+00   1.4814E+02  0.000E+00  0.000E+00  0.000E+00  1.03987E+03  2.286E+00  5.529E+01  5.592E+00  1.111E-01
   1   13    8     7     2    1.4814E+02  1.9100E+00   1.4623E+02  0.000E+00  0.000E+00  0.000E+00  1.03478E+03  2.276E+00  5.524E+01  6.146E+00  1.036E-01
   1   13    7     7     3    1.4623E+02  1.9265E+00   1.4430E+02  0.000E+00  0.000E+00  0.000E+00  1.02969E+03  2.266E+00  5.520E+01  5.582E+00  1.150E-01
   1   13    6     8     1    1.4510E+02  6.3730E-01   1.4446E+02  0.000E+00  0.000E+00  0.000E+00  1.02465E+03  2.780E+00  4.031E+01  4.107E+00  5.172E-02
   1   13    5     8     2    1.4446E+02 -7.1707E-02   1.4453E+02  0.000E+00  0.000E+00  0.000E+00  1.01840E+03  2.778E+00  4.028E+01  4.104E+00 -5.824E-03
   1   13    4     8     3    1.4453E+02 -9.0001E-01   1.4543E+02  0.000E+00  0.000E+00  0.000E+00  1.01216E+03  2.781E+00  4.033E+01  4.109E+00 -7.300E-02
   1   13    3     8     4    1.4543E+02 -1.5788E+00   1.4701E+02  0.000E+00  0.000E+00  0.000E+00  1.00592E+03  2.790E+00  4.046E+01  4.123E+00 -1.277E-01
   1   13    2     8     5    1.4701E+02 -1.7393E+00   1.4875E+02  0.000E+00  0.000E+00  0.000E+00  9.99677E+02  2.802E+00  4.063E+01  4.140E+00 -1.400E-01
   1   13    1     8     6    1.4875E+02 -1.7284E+00   1.5048E+02  0.000E+00  0.000E+00  0.000E+00  9.94689E+02  2.814E+00  4.080E+01  2.495E+00 -2.309E-01



 UBDSV3 SAVING "           GW ET" ON UNIT  61 AT TIME STEP 1, STRESS PERIOD 1
 UBDSV3 SAVING "    UZF RECHARGE" ON UNIT  61 AT TIME STEP 1, STRESS PERIOD 1
 UBDSV3 SAVING " SURFACE LEAKAGE" ON UNIT  61 AT TIME STEP 1, STRESS PERIOD 1
 UBDSV3 SAVING "       HORT+DUNN" ON UNIT  61 AT TIME STEP 1, STRESS PERIOD 1
 UBDSV3 SAVING "  STORAGE CHANGE" ON UNIT  61 AT TIME STEP 1, STRESS PERIOD 1


UNSATURATED ZONE PACKAGE VOLUMETRIC BUDGET FOR  TIME STEP     1 STRESS PERIOD    1
  ------------------------------------------------------------------------------



     CUMULATIVE VOLUMES      L**3       RATES FOR THIS TIME STEP      L**3/T
     ------------------                 ------------------------

           IN:                                      IN:
           ---                                      ---
        INFILTRATION =    22272300.0000          INFILTRATION =           8.4750

          OUT:                                     OUT:
          ----                                     ----
              UZF ET =       0.0000E+00                UZF ET =       0.0000E+00
        UZF RECHARGE =    22272300.0000          UZF RECHARGE =           8.4750

            IN - OUT =       0.0000E+00              IN - OUT =       0.0000E+00

          STORAGE:                                 STORAGE:
          --------                                 --------
      STORAGE CHANGE =       0.0000E+00        STORAGE CHANGE =       0.0000E+00

 PERCENT DISCREPANCY IS DIFFERENCE BETWEEN IN-OUT MINUS CHANGE IN STORAGE
 DIVIDED BY THE AVERAGE OF IN AND OUT TIMES 100

 PERCENT DISCREPANCY =           0.00     PERCENT DISCREPANCY =           0.00






1
  VOLUMETRIC BUDGET FOR ENTIRE MODEL AT END OF TIME STEP    1, STRESS PERIOD   1
  ------------------------------------------------------------------------------

     CUMULATIVE VOLUMES      L**3       RATES FOR THIS TIME STEP      L**3/T
     ------------------                 ------------------------

           IN:                                      IN:
           ---                                      ---
             STORAGE     =           0.0000               STORAGE     =           0.0000
       CONSTANT HEAD     =           0.0000         CONSTANT HEAD     =           0.0000
               WELLS     =           0.0000                 WELLS     =           0.0000
     HEAD DEP BOUNDS     =      545901.6875       HEAD DEP BOUNDS     =           0.2077
      STREAM LEAKAGE     =   108637720.0000        STREAM LEAKAGE     =          41.3386
        UZF RECHARGE     =    22272316.0000          UZF RECHARGE     =           8.4750
               GW ET     =           0.0000                 GW ET     =           0.0000
     SURFACE LEAKAGE     =           0.0000       SURFACE LEAKAGE     =           0.0000

                TOTAL IN =   131455936.0000                  TOTAL IN =          50.0213

          OUT:                                     OUT:
          ----                                     ----
             STORAGE     =           0.0000               STORAGE     =           0.0000
       CONSTANT HEAD     =           0.0000         CONSTANT HEAD     =           0.0000
               WELLS     =    52560000.0000                 WELLS     =          20.0000
     HEAD DEP BOUNDS     =      737185.2500       HEAD DEP BOUNDS     =           0.2805
      STREAM LEAKAGE     =    17915570.0000        STREAM LEAKAGE     =           6.8172
        UZF RECHARGE     =           0.0000          UZF RECHARGE     =           0.0000
               GW ET     =    60243184.0000                 GW ET     =          22.9236
     SURFACE LEAKAGE     =           0.0000       SURFACE LEAKAGE     =           0.0000

               TOTAL OUT =   131455936.0000                 TOTAL OUT =          50.0213

                IN - OUT =           0.0000                  IN - OUT =           0.0000

     PERCENT DISCREPANCY =           0.00         PERCENT DISCREPANCY =           0.00






         TIME SUMMARY AT END OF TIME STEP    1 IN STRESS PERIOD    1
                    SECONDS     MINUTES      HOURS       DAYS        YEARS
                    -----------------------------------------------------------
   TIME STEP LENGTH 2.62800E+06  43800.      730.00      30.417     8.32763E-02
 STRESS PERIOD TIME 2.62800E+06  43800.      730.00      30.417     8.32763E-02
         TOTAL TIME 2.62800E+06  43800.      730.00      30.417     8.32763E-02
1
1
                            STRESS PERIOD NO.    2, LENGTH =   2628000.    
                            -----------------------------------------------

                              NUMBER OF TIME STEPS =    15

                               MULTIPLIER FOR DELT =     1.100

                            INITIAL TIME STEP SIZE =   82713.07    

 WELL NO.  LAYER   ROW   COL   STRESS RATE         
 --------------------------------------------------
      1      1      6      4      -2.000    
      2      1      6      5      -2.000    
      3      1      7      4      -2.000    
      4      1      7      5      -2.000    
      5      1      8      4      -2.000    
      6      1      8      5      -2.000    
      7      1      9      4      -2.000    
      8      1      9      5      -2.000    
      9      1     10      4      -2.000    
     10      1     10      5      -2.000    

     10 WELLS

 REUSING NON-PARAMETER GHB CELLS FROM LAST STRESS PERIOD

      2 GHB CELLS

 REUSING STREAM SEGMENT DATA FROM LAST STRESS PERIOD



            AREAL INFILTRATION RATE
 READING ON UNIT   19 WITH FORMAT: (10F4.0)            

            1           2           3           4           5           6           7           8           9          10
 ........................................................................................................................
   1   8.0000E-09  1.6000E-08   0.000       0.000       0.000       0.000       0.000       0.000       0.000       0.000    
   2   1.6000E-08  8.0000E-09  1.6000E-08   0.000       0.000      6.4000E-08  6.4000E-08  4.0000E-08   0.000       0.000    
   3    0.000      4.0000E-08  8.0000E-09  8.0000E-09  6.4000E-08  6.4000E-08  4.0000E-08  4.0000E-08   0.000       0.000    
   4   6.4000E-08  4.0000E-08  8.0000E-09  8.0000E-09  8.0000E-09  8.0000E-09  8.0000E-09  8.0000E-09  1.6000E-08   0.000    
   5   6.4000E-08  4.0000E-08  8.0000E-09  8.0000E-09  8.0000E-09  8.0000E-09  8.0000E-09  8.0000E-09  8.0000E-09  8.0000E-09
   6   6.4000E-08  4.0000E-08  4.0000E-08  1.6000E-08  1.6000E-08  8.0000E-09  8.0000E-09  8.0000E-09  8.0000E-09  4.0000E-08
   7   6.4000E-08  4.0000E-08  4.0000E-08  1.6000E-08  1.6000E-08  8.0000E-09  8.0000E-09  1.6000E-08  1.6000E-08   0.000    
   8    0.000      4.0000E-08  4.0000E-08  1.6000E-08  1.6000E-08  8.0000E-09  8.0000E-09  1.6000E-08  4.0000E-08   0.000    
   9    0.000      4.0000E-08  4.0000E-08  1.6000E-08  1.6000E-08  8.0000E-09  8.0000E-09  1.6000E-08  4.0000E-08   0.000    
  10    0.000      4.0000E-08  4.0000E-08  1.6000E-08  1.6000E-08  8.0000E-09  8.0000E-09  1.6000E-08  4.0000E-08  6.4000E-08
  11    0.000      8.0000E-09  8.0000E-09  8.0000E-09  8.0000E-09  8.0000E-09  8.0000E-09  1.6000E-08  4.0000E-08   0.000    
  12   8.0000E-09  8.0000E-09  8.0000E-09  8.0000E-09  8.0000E-09  8.0000E-09  8.0000E-09  8.0000E-09  1.6000E-08   0.000    
  13   8.0000E-09  8.0000E-09  1.6000E-08  1.6000E-08  1.6000E-08  1.6000E-08  1.6000E-08  8.0000E-09  8.0000E-09   0.000    
  14    0.000      1.6000E-08  4.0000E-08  4.0000E-08  4.0000E-08  4.0000E-08  4.0000E-08  1.6000E-08  8.0000E-09   0.000    
  15    0.000       0.000      6.4000E-08  6.4000E-08  6.4000E-08  6.4000E-08   0.000       0.000       0.000       0.000    

                  ET RATE =  5.000000E-08

 USING ET EXTINCTION DEPTH FROM PREVIOUS STRESS PERIOD. CURRENT PERIOD IS:       2

 USING EXTINCTION WATER CONTENT FROM PREVIOUS STRESS PERIOD. CURRENT PERIOD IS:       2
 
 SOLVING FOR HEAD 
                                                   Max.-Head-Change                         Max.-Flux-Residual
  Residual-Control   Outer-Iter.   Inner-Iter.     Column Row Layer    Maximum-Head-Change  Column Row Layer    Maximum-Flux-Residual          L2-NORM 
          0                 1           2             6   15     2      -0.5025191464E+00       6   12    1         0.3124416208E+00      0.1416203316E+01
          0                 2           2             6   15     2       0.4758704881E-01       6    3    1         0.4951395638E-01      0.1197835032E+00
          0                 3           2             6   15     2      -0.2894372442E-02       6    3    1         0.8362974587E-02      0.1415876113E-01
          0                 4           1             5   15     2       0.5396681903E-04       6    3    1         0.1412144535E-02      0.2227872185E-02

    ------------------------------------------------
       NWT REQUIRED            4 OUTER ITERATIONS 
       AND A TOTAL OF          7 INNER ITERATIONS.
    ------------------------------------------------

 OUTPUT CONTROL FOR STRESS PERIOD    2   TIME STEP    1
    PRINT BUDGET
    SAVE BUDGET

            WELLS   PERIOD    2   STEP   1
 WELL      1   LAYER   1   ROW     6   COL     4   RATE    -2.00000    
 WELL      2   LAYER   1   ROW     6   COL     5   RATE    -2.00000    
 WELL      3   LAYER   1   ROW     7   COL     4   RATE    -2.00000    
 WELL      4   LAYER   1   ROW     7   COL     5   RATE    -2.00000    
 WELL      5   LAYER   1   ROW     8   COL     4   RATE    -2.00000    
 WELL      6   LAYER   1   ROW     8   COL     5   RATE    -2.00000    
 WELL      7   LAYER   1   ROW     9   COL     4   RATE    -2.00000    
 WELL      8   LAYER   1   ROW     9   COL     5   RATE    -2.00000    
 WELL      9   LAYER   1   ROW    10   COL     4   RATE    -2.00000    
 WELL     10   LAYER   1   ROW    10   COL     5   RATE    -2.00000    

  HEAD DEP BOUNDS   PERIOD    2   STEP     1
 BOUNDARY      1   LAYER   1   ROW    13   COL     1   RATE   -0.280573    
 BOUNDARY      2   LAYER   1   ROW    14   COL     9   RATE    0.207565    



 STREAM LISTING     PERIOD      2   STEP        1

 LAYER ROW COL. STREAM  RCH.  FLOW INTO     FLOW TO   FLOW OUT OF   OVRLND.     DIRECT     STREAM       STREAM     STREAM     STREAM   STREAMBED  STREAMBED
                SEG.NO.  NO.  STRM. RCH.    AQUIFER    STRM. RCH.    RUNOFF     PRECIP       ET          HEAD       DEPTH      WIDTH   CONDCTNC.   GRADIENT

   1    1    1     1     1    2.5000E+01  1.1978E+00   2.3802E+01  0.000E+00  0.000E+00  0.000E+00  1.09422E+03  1.171E+00  1.294E+01  5.824E-01  6.855E-01
   1    2    2     1     2    2.3802E+01  2.7411E+00   2.1061E+01  0.000E+00  0.000E+00  0.000E+00  1.08920E+03  1.141E+00  1.254E+01  8.775E-01  1.041E+00
   1    3    3     1     3    2.1061E+01  2.9181E+00   1.8143E+01  0.000E+00  0.000E+00  0.000E+00  1.08351E+03  1.094E+00  1.188E+01  7.128E-01  1.365E+00
   1    3    4     1     4    1.8143E+01  2.4793E+00   1.5664E+01  0.000E+00  0.000E+00  0.000E+00  1.07846E+03  1.048E+00  1.104E+01  6.125E-01  1.349E+00
   1    4    5     2     1    5.6637E+00  2.6689E+00   2.9947E+00  0.000E+00  0.000E+00  0.000E+00  1.07236E+03  4.217E-01  1.200E+01  7.800E-01  1.141E+00
   1    5    6     2     2    2.9947E+00  1.9599E+00   1.0348E+00  0.000E+00  0.000E+00  0.000E+00  1.06678E+03  2.665E-01  1.200E+01  6.000E-01  1.089E+00
   1    6    6     2     3    1.0348E+00  1.0348E+00   0.0000E+00  0.000E+00  0.000E+00  0.000E+00  1.06183E+03  4.020E-02  1.200E+01  6.000E-01  1.013E+00
   1    7    6     2     4    0.0000E+00  0.0000E+00   0.0000E+00  0.000E+00  0.000E+00  0.000E+00  1.05708E+03  0.000E+00  1.200E+01  6.000E-01  1.000E+00
   1    8    6     2     5    0.0000E+00  0.0000E+00   0.0000E+00  0.000E+00  0.000E+00  0.000E+00  1.05236E+03  0.000E+00  1.200E+01  6.000E-01  1.000E+00
   1    3    5     3     1    1.0000E+01  2.0644E+00   7.9356E+00  0.000E+00  0.000E+00  0.000E+00  1.07555E+03  1.909E+00  9.636E+00  7.227E-01  1.428E+00
   1    3    6     3     2    7.9356E+00  1.8388E+00   6.0967E+00  0.000E+00  0.000E+00  0.000E+00  1.07264E+03  1.727E+00  8.909E+00  6.682E-01  1.376E+00
   1    3    7     3     3    6.0967E+00  1.3218E+00   4.7749E+00  0.000E+00  0.000E+00  0.000E+00  1.06987E+03  1.555E+00  8.218E+00  5.547E-01  1.191E+00
   1    4    8     3     4    4.7749E+00  1.6764E+00   3.0985E+00  0.000E+00  0.000E+00  0.000E+00  1.06682E+03  1.364E+00  7.455E+00  6.709E-01  1.249E+00
   1    5    8     3     5    3.0985E+00  1.5790E+00   1.5195E+00  0.000E+00  0.000E+00  0.000E+00  1.06362E+03  1.164E+00  6.655E+00  4.991E-01  1.582E+00
   1    6    8     3     6    1.5195E+00  5.5980E-01   9.5972E-01  0.000E+00  0.000E+00  0.000E+00  1.06158E+03  1.036E+00  6.145E+00  1.844E-01  1.518E+00
   1    5   10     4     1    1.0000E+01  9.0525E-01   9.0947E+00  0.000E+00  0.000E+00  0.000E+00  1.07835E+03  6.210E-01  1.000E+01  2.500E-01  1.207E+00
   1    5    9     4     2    9.0947E+00  1.7835E+00   7.3113E+00  0.000E+00  0.000E+00  0.000E+00  1.07148E+03  5.670E-01  1.000E+01  5.000E-01  1.189E+00
   1    6    8     4     3    7.3113E+00  1.2257E+00   6.0855E+00  0.000E+00  0.000E+00  0.000E+00  1.06368E+03  5.021E-01  1.000E+01  3.500E-01  1.167E+00
   1    6    8     5     1    7.0453E+00  3.9121E-01   6.6541E+00  0.000E+00  0.000E+00  0.000E+00  1.05859E+03  5.883E-01  1.206E+01  4.822E-01  2.704E-01
   1    7    7     5     2    6.6541E+00  1.3142E+00   5.3398E+00  0.000E+00  0.000E+00  0.000E+00  1.05406E+03  5.616E-01  1.113E+01  5.566E-01  7.871E-01
   1    8    7     5     3    5.3398E+00  9.6232E-01   4.3775E+00  0.000E+00  0.000E+00  0.000E+00  1.04977E+03  5.217E-01  9.810E+00  3.434E-01  9.342E-01
   1    8    6     5     4    4.3775E+00  7.6076E-01   3.6167E+00  0.000E+00  0.000E+00  0.000E+00  1.04674E+03  4.872E-01  8.726E+00  2.182E-01  1.162E+00
   1    9    6     6     1    3.6167E+00  1.9894E+00   1.6274E+00  0.000E+00  0.000E+00  0.000E+00  1.04304E+03  3.156E-01  1.200E+01  6.000E-01  1.105E+00
   1   10    7     6     2    1.6274E+00  1.3367E+00   2.9071E-01  0.000E+00  0.000E+00  0.000E+00  1.03835E+03  1.726E-01  1.200E+01  6.000E-01  7.426E-01
   1   11    7     6     3    2.9071E-01  2.9071E-01   0.0000E+00  0.000E+00  0.000E+00  0.000E+00  1.03366E+03  1.898E-02  1.200E+01  6.000E-01  9.976E-01
   1   12    7     6     4    0.0000E+00  0.0000E+00   0.0000E+00  0.000E+00  0.000E+00  0.000E+00  1.02909E+03  0.000E+00  1.200E+01  6.000E-01  7.109E-01
   1   13    7     6     5    0.0000E+00 -7.9964E-01   7.9964E-01  0.000E+00  0.000E+00  0.000E+00  1.02601E+03  1.021E-01  1.200E+01  2.400E-01 -1.111E+00
   1   14    9     7     1    1.5000E+02  1.8416E+00   1.4816E+02  0.000E+00  0.000E+00  0.000E+00  1.03987E+03  2.286E+00  5.529E+01  5.592E+00  1.098E-01
   1   13    8     7     2    1.4816E+02  1.8898E+00   1.4627E+02  0.000E+00  0.000E+00  0.000E+00  1.03478E+03  2.276E+00  5.524E+01  6.146E+00  1.025E-01
   1   13    7     7     3    1.4627E+02  1.9126E+00   1.4436E+02  0.000E+00  0.000E+00  0.000E+00  1.02969E+03  2.266E+00  5.520E+01  5.582E+00  1.142E-01
   1   13    6     8     1    1.4516E+02  6.2823E-01   1.4453E+02  0.000E+00  0.000E+00  0.000E+00  1.02466E+03  2.780E+00  4.031E+01  4.108E+00  5.098E-02
   1   13    5     8     2    1.4453E+02 -7.6129E-02   1.4460E+02  0.000E+00  0.000E+00  0.000E+00  1.01840E+03  2.778E+00  4.028E+01  4.105E+00 -6.182E-03
   1   13    4     8     3    1.4460E+02 -9.0470E-01   1.4551E+02  0.000E+00  0.000E+00  0.000E+00  1.01216E+03  2.782E+00  4.033E+01  4.110E+00 -7.337E-02
   1   13    3     8     4    1.4551E+02 -1.5839E+00   1.4709E+02  0.000E+00  0.000E+00  0.000E+00  1.00592E+03  2.791E+00  4.046E+01  4.123E+00 -1.280E-01
   1   13    2     8     5    1.4709E+02 -1.7533E+00   1.4885E+02  0.000E+00  0.000E+00  0.000E+00  9.99677E+02  2.802E+00  4.064E+01  4.141E+00 -1.411E-01
   1   13    1     8     6    1.4885E+02 -1.7311E+00   1.5058E+02  0.000E+00  0.000E+00  0.000E+00  9.94690E+02  2.815E+00  4.081E+01  2.495E+00 -2.312E-01



 UBDSV3 SAVING "           GW ET" ON UNIT  61 AT TIME STEP 1, STRESS PERIOD 2
 UBDSV3 SAVING "    UZF RECHARGE" ON UNIT  61 AT TIME STEP 1, STRESS PERIOD 2
 UBDSV3 SAVING " SURFACE LEAKAGE" ON UNIT  61 AT TIME STEP 1, STRESS PERIOD 2
 UBDSV3 SAVING "       HORT+DUNN" ON UNIT  61 AT TIME STEP 1, STRESS PERIOD 2
 UBDSV3 SAVING "  STORAGE CHANGE" ON UNIT  61 AT TIME STEP 1, STRESS PERIOD 2


UNSATURATED ZONE PACKAGE VOLUMETRIC BUDGET FOR  TIME STEP     1 STRESS PERIOD    2
  ------------------------------------------------------------------------------



     CUMULATIVE VOLUMES      L**3       RATES FOR THIS TIME STEP      L**3/T
     ------------------                 ------------------------

           IN:                                      IN:
           ---                                      ---
        INFILTRATION =    27880246.0039          INFILTRATION =          67.8000

          OUT:                                     OUT:
          ----                                     ----
              UZF ET =    10097315.1177                UZF ET =         122.0764
        UZF RECHARGE =    23071821.8660          UZF RECHARGE =           9.6662

            IN - OUT =    -5288890.9797              IN - OUT =         -63.9426

          STORAGE:                                 STORAGE:
          --------                                 --------
      STORAGE CHANGE =    -5287649.7437        STORAGE CHANGE =         -63.9276

 PERCENT DISCREPANCY IS DIFFERENCE BETWEEN IN-OUT MINUS CHANGE IN STORAGE
 DIVIDED BY THE AVERAGE OF IN AND OUT TIMES 100

 PERCENT DISCREPANCY =          -0.00     PERCENT DISCREPANCY =          -0.01






1
  VOLUMETRIC BUDGET FOR ENTIRE MODEL AT END OF TIME STEP    1, STRESS PERIOD   2
  ------------------------------------------------------------------------------

     CUMULATIVE VOLUMES      L**3       RATES FOR THIS TIME STEP      L**3/T
     ------------------                 ------------------------

           IN:                                      IN:
           ---                                      ---
             STORAGE     =       16967.2910               STORAGE     =           0.2051
       CONSTANT HEAD     =           0.0000         CONSTANT HEAD     =           0.0000
               WELLS     =           0.0000                 WELLS     =           0.0000
     HEAD DEP BOUNDS     =      563070.0625       HEAD DEP BOUNDS     =           0.2076
      STREAM LEAKAGE     =   112051472.0000        STREAM LEAKAGE     =          41.2722
        UZF RECHARGE     =    23071838.0000          UZF RECHARGE     =           9.6662
               GW ET     =           0.0000                 GW ET     =           0.0000
     SURFACE LEAKAGE     =           0.0000       SURFACE LEAKAGE     =           0.0000

                TOTAL IN =   135703344.0000                  TOTAL IN =          51.3511

          OUT:                                     OUT:
          ----                                     ----
             STORAGE     =      754113.8125               STORAGE     =           9.1172
       CONSTANT HEAD     =           0.0000         CONSTANT HEAD     =           0.0000
               WELLS     =    54214260.0000                 WELLS     =          20.0000
     HEAD DEP BOUNDS     =      760392.3125       HEAD DEP BOUNDS     =           0.2806
      STREAM LEAKAGE     =    18482058.0000        STREAM LEAKAGE     =           6.8488
        UZF RECHARGE     =           0.0000          UZF RECHARGE     =           0.0000
               GW ET     =    61492480.0000                 GW ET     =          15.1040
     SURFACE LEAKAGE     =           0.0000       SURFACE LEAKAGE     =           0.0000

               TOTAL OUT =   135703296.0000                 TOTAL OUT =          51.3506

                IN - OUT =          48.0000                  IN - OUT =       5.0735E-04

     PERCENT DISCREPANCY =           0.00         PERCENT DISCREPANCY =           0.00






         TIME SUMMARY AT END OF TIME STEP    1 IN STRESS PERIOD    2
                    SECONDS     MINUTES      HOURS       DAYS        YEARS
                    -----------------------------------------------------------
   TIME STEP LENGTH  82713.      1378.6      22.976     0.95733     2.62102E-03
 STRESS PERIOD TIME  82713.      1378.6      22.976     0.95733     2.62102E-03
         TOTAL TIME 2.71071E+06  45179.      752.98      31.374     8.58973E-02
1
 
 SOLVING FOR HEAD 
                                                   Max.-Head-Change                         Max.-Flux-Residual
  Residual-Control   Outer-Iter.   Inner-Iter.     Column Row Layer    Maximum-Head-Change  Column Row Layer    Maximum-Flux-Residual          L2-NORM 
          0                 1           2             6   15     2      -0.2731496819E-01       7   11    1         0.3230272322E+00      0.1343594535E+01
          0                 2           2             6   15     2       0.2788787173E-02       6    3    1         0.4532348724E-01      0.1034217113E+00
          0                 3           1             6    3     1       0.2901691954E-03       6    3    1         0.7483502352E-02      0.1260953543E-01
          0                 4           1             4   15     1      -0.9426850296E-04       6    3    1         0.1236481585E-02      0.1914808056E-02

    ------------------------------------------------
       NWT REQUIRED            4 OUTER ITERATIONS 
       AND A TOTAL OF          6 INNER ITERATIONS.
    ------------------------------------------------

 NO OUTPUT CONTROL FOR STRESS PERIOD    2   TIME STEP    2
 
 SOLVING FOR HEAD 
                                                   Max.-Head-Change                         Max.-Flux-Residual
  Residual-Control   Outer-Iter.   Inner-Iter.     Column Row Layer    Maximum-Head-Change  Column Row Layer    Maximum-Flux-Residual          L2-NORM 
          0                 1           2             8   12     1       0.1231225455E-01       7   11    1         0.3443372587E+00      0.1312059730E+01
          0                 2           2             6    3     1       0.1744933161E-02       6    3    1         0.4105993851E-01      0.9728747323E-01
          0                 3           1             6    3     1       0.2811987538E-03       6    3    1         0.6612530601E-02      0.1136466341E-01
          0                 4           1             4   15     1      -0.1261507134E-03       6    3    1         0.1066054539E-02      0.1686892373E-02
          0                 5           1             4   15     1      -0.1080669877E-03       4   15    1        -0.2822926598E-03      0.3814622247E-03
          0                 6           1             4   15     1      -0.9250113154E-04       4   15    1        -0.2417540632E-03      0.2455652796E-03

    ------------------------------------------------
       NWT REQUIRED            6 OUTER ITERATIONS 
       AND A TOTAL OF          8 INNER ITERATIONS.
    ------------------------------------------------

 NO OUTPUT CONTROL FOR STRESS PERIOD    2   TIME STEP    3
 
 SOLVING FOR HEAD 
                                                   Max.-Head-Change                         Max.-Flux-Residual
  Residual-Control   Outer-Iter.   Inner-Iter.     Column Row Layer    Maximum-Head-Change  Column Row Layer    Maximum-Flux-Residual          L2-NORM 
          0                 1           2             8   12     1       0.1330233330E-01       7   11    1         0.3662120681E+00      0.1282370059E+01
          0                 2           2             6    3     1       0.1712530084E-02       7   11    1         0.4070269448E-01      0.9120805414E-01
          0                 3           1             6    3     1       0.2684312576E-03       6    3    1         0.5757503110E-02      0.1015641174E-01
          0                 4           1             4   15     1      -0.1318401389E-03       6    3    1         0.9028968703E-03      0.1458337735E-02
          0                 5           1             4   15     1      -0.1113628760E-03       4   15    1        -0.2678203570E-03      0.3432224212E-03
          0                 6           1             4   15     1      -0.9398062615E-04       4   15    1        -0.2261465916E-03      0.2290695591E-03

    ------------------------------------------------
       NWT REQUIRED            6 OUTER ITERATIONS 
       AND A TOTAL OF          8 INNER ITERATIONS.
    ------------------------------------------------

 NO OUTPUT CONTROL FOR STRESS PERIOD    2   TIME STEP    4
 
 SOLVING FOR HEAD 
                                                   Max.-Head-Change                         Max.-Flux-Residual
  Residual-Control   Outer-Iter.   Inner-Iter.     Column Row Layer    Maximum-Head-Change  Column Row Layer    Maximum-Flux-Residual          L2-NORM 
          0                 1           2             8   12     1       0.1435133979E-01       7   11    1         0.3884435600E+00      0.1254179088E+01
          0                 2           2             6    3     1       0.1657691781E-02       7   11    1         0.4178642941E-01      0.8526890231E-01
          0                 3           1             6    3     1       0.2518607852E-03       6    3    1         0.4928845512E-02      0.8992780422E-02
          0                 4           1             4   15     1      -0.1401004793E-03       6    3    1         0.7492796954E-03      0.1245845402E-02
          0                 5           1             4   15     1      -0.1165502440E-03       4   15    1        -0.2583203298E-03      0.3127225893E-03
          0                 6           1             4   15     1      -0.9686108901E-04       4   15    1        -0.2148174949E-03      0.2169598254E-03

    ------------------------------------------------
       NWT REQUIRED            6 OUTER ITERATIONS 
       AND A TOTAL OF          8 INNER ITERATIONS.
    ------------------------------------------------

 OUTPUT CONTROL FOR STRESS PERIOD    2   TIME STEP    5
    PRINT BUDGET
    SAVE BUDGET

            WELLS   PERIOD    2   STEP   5
 WELL      1   LAYER   1   ROW     6   COL     4   RATE    -2.00000    
 WELL      2   LAYER   1   ROW     6   COL     5   RATE    -2.00000    
 WELL      3   LAYER   1   ROW     7   COL     4   RATE    -2.00000    
 WELL      4   LAYER   1   ROW     7   COL     5   RATE    -2.00000    
 WELL      5   LAYER   1   ROW     8   COL     4   RATE    -2.00000    
 WELL      6   LAYER   1   ROW     8   COL     5   RATE    -2.00000    
 WELL      7   LAYER   1   ROW     9   COL     4   RATE    -2.00000    
 WELL      8   LAYER   1   ROW     9   COL     5   RATE    -2.00000    
 WELL      9   LAYER   1   ROW    10   COL     4   RATE    -2.00000    
 WELL     10   LAYER   1   ROW    10   COL     5   RATE    -2.00000    

  HEAD DEP BOUNDS   PERIOD    2   STEP     5
 BOUNDARY      1   LAYER   1   ROW    13   COL     1   RATE   -0.280843    
 BOUNDARY      2   LAYER   1   ROW    14   COL     9   RATE    0.206984    



 STREAM LISTING     PERIOD      2   STEP        5

 LAYER ROW COL. STREAM  RCH.  FLOW INTO     FLOW TO   FLOW OUT OF   OVRLND.     DIRECT     STREAM       STREAM     STREAM     STREAM   STREAMBED  STREAMBED
                SEG.NO.  NO.  STRM. RCH.    AQUIFER    STRM. RCH.    RUNOFF     PRECIP       ET          HEAD       DEPTH      WIDTH   CONDCTNC.   GRADIENT

   1    1    1     1     1    2.5000E+01  1.1883E+00   2.3812E+01  0.000E+00  0.000E+00  0.000E+00  1.09422E+03  1.171E+00  1.294E+01  5.825E-01  6.801E-01
   1    2    2     1     2    2.3812E+01  2.7187E+00   2.1093E+01  0.000E+00  0.000E+00  0.000E+00  1.08920E+03  1.141E+00  1.254E+01  8.778E-01  1.032E+00
   1    3    3     1     3    2.1093E+01  2.9207E+00   1.8172E+01  0.000E+00  0.000E+00  0.000E+00  1.08351E+03  1.094E+00  1.189E+01  7.134E-01  1.365E+00
   1    3    4     1     4    1.8172E+01  2.4817E+00   1.5691E+01  0.000E+00  0.000E+00  0.000E+00  1.07846E+03  1.048E+00  1.105E+01  6.130E-01  1.349E+00
   1    4    5     2     1    5.6906E+00  2.6701E+00   3.0205E+00  0.000E+00  0.000E+00  0.000E+00  1.07236E+03  4.232E-01  1.200E+01  7.800E-01  1.141E+00
   1    5    6     2     2    3.0205E+00  1.9611E+00   1.0594E+00  0.000E+00  0.000E+00  0.000E+00  1.06678E+03  2.685E-01  1.200E+01  6.000E-01  1.089E+00
   1    6    6     2     3    1.0594E+00  1.0594E+00   0.0000E+00  0.000E+00  0.000E+00  0.000E+00  1.06183E+03  4.077E-02  1.200E+01  6.000E-01  1.014E+00
   1    7    6     2     4    0.0000E+00  0.0000E+00   0.0000E+00  0.000E+00  0.000E+00  0.000E+00  1.05708E+03  0.000E+00  1.200E+01  6.000E-01  1.000E+00
   1    8    6     2     5    0.0000E+00  0.0000E+00   0.0000E+00  0.000E+00  0.000E+00  0.000E+00  1.05236E+03  0.000E+00  1.200E+01  6.000E-01  1.000E+00
   1    3    5     3     1    1.0000E+01  2.0302E+00   7.9698E+00  0.000E+00  0.000E+00  0.000E+00  1.07555E+03  1.909E+00  9.636E+00  7.227E-01  1.405E+00
   1    3    6     3     2    7.9698E+00  1.8045E+00   6.1653E+00  0.000E+00  0.000E+00  0.000E+00  1.07264E+03  1.727E+00  8.909E+00  6.682E-01  1.350E+00
   1    3    7     3     3    6.1653E+00  1.2945E+00   4.8708E+00  0.000E+00  0.000E+00  0.000E+00  1.06987E+03  1.555E+00  8.218E+00  5.547E-01  1.167E+00
   1    4    8     3     4    4.8708E+00  1.6451E+00   3.2257E+00  0.000E+00  0.000E+00  0.000E+00  1.06682E+03  1.364E+00  7.455E+00  6.709E-01  1.226E+00
   1    5    8     3     5    3.2257E+00  1.5790E+00   1.6467E+00  0.000E+00  0.000E+00  0.000E+00  1.06362E+03  1.164E+00  6.655E+00  4.991E-01  1.582E+00
   1    6    8     3     6    1.6467E+00  5.5980E-01   1.0869E+00  0.000E+00  0.000E+00  0.000E+00  1.06158E+03  1.036E+00  6.145E+00  1.844E-01  1.518E+00
   1    5   10     4     1    1.0000E+01  9.0525E-01   9.0947E+00  0.000E+00  0.000E+00  0.000E+00  1.07835E+03  6.210E-01  1.000E+01  2.500E-01  1.207E+00
   1    5    9     4     2    9.0947E+00  1.7835E+00   7.3113E+00  0.000E+00  0.000E+00  0.000E+00  1.07148E+03  5.670E-01  1.000E+01  5.000E-01  1.189E+00
   1    6    8     4     3    7.3113E+00  1.2257E+00   6.0855E+00  0.000E+00  0.000E+00  0.000E+00  1.06368E+03  5.021E-01  1.000E+01  3.500E-01  1.167E+00
   1    6    8     5     1    7.1725E+00  3.8544E-01   6.7871E+00  0.000E+00  0.000E+00  0.000E+00  1.05859E+03  5.922E-01  1.219E+01  4.877E-01  2.634E-01
   1    7    7     5     2    6.7871E+00  1.3246E+00   5.4624E+00  0.000E+00  0.000E+00  0.000E+00  1.05407E+03  5.657E-01  1.127E+01  5.636E-01  7.834E-01
   1    8    7     5     3    5.4624E+00  9.7697E-01   4.4855E+00  0.000E+00  0.000E+00  0.000E+00  1.04978E+03  5.260E-01  9.950E+00  3.482E-01  9.352E-01
   1    8    6     5     4    4.4855E+00  7.7328E-01   3.7122E+00  0.000E+00  0.000E+00  0.000E+00  1.04674E+03  4.915E-01  8.859E+00  2.215E-01  1.164E+00
   1    9    6     6     1    3.7122E+00  1.9934E+00   1.7188E+00  0.000E+00  0.000E+00  0.000E+00  1.04305E+03  3.223E-01  1.200E+01  6.000E-01  1.107E+00
   1   10    7     6     2    1.7188E+00  1.3256E+00   3.9319E-01  0.000E+00  0.000E+00  0.000E+00  1.03836E+03  1.829E-01  1.200E+01  6.000E-01  7.365E-01
   1   11    7     6     3    3.9319E-01  3.9319E-01   0.0000E+00  0.000E+00  0.000E+00  0.000E+00  1.03366E+03  2.275E-02  1.200E+01  6.000E-01  9.865E-01
   1   12    7     6     4    0.0000E+00  0.0000E+00   0.0000E+00  0.000E+00  0.000E+00  0.000E+00  1.02909E+03  0.000E+00  1.200E+01  6.000E-01  7.025E-01
   1   13    7     6     5    0.0000E+00 -8.0201E-01   8.0201E-01  0.000E+00  0.000E+00  0.000E+00  1.02601E+03  1.023E-01  1.200E+01  2.400E-01 -1.114E+00
   1   14    9     7     1    1.5000E+02  1.7572E+00   1.4824E+02  0.000E+00  0.000E+00  0.000E+00  1.03987E+03  2.287E+00  5.529E+01  5.592E+00  1.047E-01
   1   13    8     7     2    1.4824E+02  1.8168E+00   1.4643E+02  0.000E+00  0.000E+00  0.000E+00  1.03478E+03  2.277E+00  5.525E+01  6.147E+00  9.853E-02
   1   13    7     7     3    1.4643E+02  1.8620E+00   1.4456E+02  0.000E+00  0.000E+00  0.000E+00  1.02969E+03  2.267E+00  5.520E+01  5.583E+00  1.112E-01
   1   13    6     8     1    1.4537E+02  5.9137E-01   1.4477E+02  0.000E+00  0.000E+00  0.000E+00  1.02466E+03  2.782E+00  4.034E+01  4.110E+00  4.796E-02
   1   13    5     8     2    1.4477E+02 -9.4992E-02   1.4487E+02  0.000E+00  0.000E+00  0.000E+00  1.01840E+03  2.780E+00  4.031E+01  4.108E+00 -7.708E-03
   1   13    4     8     3    1.4487E+02 -9.2425E-01   1.4579E+02  0.000E+00  0.000E+00  0.000E+00  1.01216E+03  2.784E+00  4.036E+01  4.113E+00 -7.490E-02
   1   13    3     8     4    1.4579E+02 -1.6055E+00   1.4740E+02  0.000E+00  0.000E+00  0.000E+00  1.00592E+03  2.793E+00  4.049E+01  4.126E+00 -1.297E-01
   1   13    2     8     5    1.4740E+02 -1.8099E+00   1.4921E+02  0.000E+00  0.000E+00  0.000E+00  9.99680E+02  2.805E+00  4.067E+01  4.144E+00 -1.456E-01
   1   13    1     8     6    1.4921E+02 -1.7439E+00   1.5095E+02  0.000E+00  0.000E+00  0.000E+00  9.94692E+02  2.817E+00  4.085E+01  2.498E+00 -2.327E-01



 UBDSV3 SAVING "           GW ET" ON UNIT  61 AT TIME STEP 5, STRESS PERIOD 2
 UBDSV3 SAVING "    UZF RECHARGE" ON UNIT  61 AT TIME STEP 5, STRESS PERIOD 2
 UBDSV3 SAVING " SURFACE LEAKAGE" ON UNIT  61 AT TIME STEP 5, STRESS PERIOD 2
 UBDSV3 SAVING "       HORT+DUNN" ON UNIT  61 AT TIME STEP 5, STRESS PERIOD 2
 UBDSV3 SAVING "  STORAGE CHANGE" ON UNIT  61 AT TIME STEP 5, STRESS PERIOD 2


UNSATURATED ZONE PACKAGE VOLUMETRIC BUDGET FOR  TIME STEP     5 STRESS PERIOD    2
  ------------------------------------------------------------------------------



     CUMULATIVE VOLUMES      L**3       RATES FOR THIS TIME STEP      L**3/T
     ------------------                 ------------------------

           IN:                                      IN:
           ---                                      ---
        INFILTRATION =    56509372.9551          INFILTRATION =          67.8000

          OUT:                                     OUT:
          ----                                     ----
              UZF ET =    61627430.3872                UZF ET =         122.0107
        UZF RECHARGE =    27109843.0718          UZF RECHARGE =           9.3909

            IN - OUT =   -32227900.5039              IN - OUT =         -63.6015

          STORAGE:                                 STORAGE:
          --------                                 --------
      STORAGE CHANGE =   -32219264.4107        STORAGE CHANGE =         -63.5827

 PERCENT DISCREPANCY IS DIFFERENCE BETWEEN IN-OUT MINUS CHANGE IN STORAGE
 DIVIDED BY THE AVERAGE OF IN AND OUT TIMES 100

 PERCENT DISCREPANCY =          -0.00     PERCENT DISCREPANCY =          -0.01






1
  VOLUMETRIC BUDGET FOR ENTIRE MODEL AT END OF TIME STEP    5, STRESS PERIOD   2
  ------------------------------------------------------------------------------

     CUMULATIVE VOLUMES      L**3       RATES FOR THIS TIME STEP      L**3/T
     ------------------                 ------------------------

           IN:                                      IN:
           ---                                      ---
             STORAGE     =       34168.3086               STORAGE     =       3.8531E-02
       CONSTANT HEAD     =           0.0000         CONSTANT HEAD     =           0.0000
               WELLS     =           0.0000                 WELLS     =           0.0000
     HEAD DEP BOUNDS     =      650551.8750       HEAD DEP BOUNDS     =           0.2070
      STREAM LEAKAGE     =   129409968.0000        STREAM LEAKAGE     =          41.0274
        UZF RECHARGE     =    27109858.0000          UZF RECHARGE     =           9.3908
               GW ET     =           0.0000                 GW ET     =           0.0000
     SURFACE LEAKAGE     =           0.0000       SURFACE LEAKAGE     =           0.0000

                TOTAL IN =   157204544.0000                  TOTAL IN =          50.6637

          OUT:                                     OUT:
          ----                                     ----
             STORAGE     =     4367149.5000               STORAGE     =           8.2305
       CONSTANT HEAD     =           0.0000         CONSTANT HEAD     =           0.0000
               WELLS     =    62659428.0000                 WELLS     =          20.0000
     HEAD DEP BOUNDS     =      878940.0625       HEAD DEP BOUNDS     =           0.2808
      STREAM LEAKAGE     =    21410338.0000        STREAM LEAKAGE     =           6.9806
        UZF RECHARGE     =           0.0000          UZF RECHARGE     =           0.0000
               GW ET     =    67888680.0000                 GW ET     =          15.1720
     SURFACE LEAKAGE     =           0.0000       SURFACE LEAKAGE     =           0.0000

               TOTAL OUT =   157204544.0000                 TOTAL OUT =          50.6639

                IN - OUT =           0.0000                  IN - OUT =      -1.7929E-04

     PERCENT DISCREPANCY =           0.00         PERCENT DISCREPANCY =          -0.00






         TIME SUMMARY AT END OF TIME STEP    5 IN STRESS PERIOD    2
                    SECONDS     MINUTES      HOURS       DAYS        YEARS
                    -----------------------------------------------------------
   TIME STEP LENGTH 1.21100E+05  2018.3      33.639      1.4016     3.83743E-03
 STRESS PERIOD TIME 5.04972E+05  8416.2      140.27      5.8446     1.60016E-02
         TOTAL TIME 3.13297E+06  52216.      870.27      36.261     9.92779E-02
1
 
 SOLVING FOR HEAD 
                                                   Max.-Head-Change                         Max.-Flux-Residual
  Residual-Control   Outer-Iter.   Inner-Iter.     Column Row Layer    Maximum-Head-Change  Column Row Layer    Maximum-Flux-Residual          L2-NORM 
          0                 1           2             8   12     1       0.1545950939E-01       7   11    1         0.4108092857E+00      0.1227585407E+01
          0                 2           2             6    3     1       0.1579147363E-02       7   11    1         0.4258564361E-01      0.7951347745E-01
          0                 3           1             6    3     1       0.2316389622E-03       6    3    1         0.4137406474E-02      0.7884676506E-02
          0                 4           1             4   15     1      -0.1497101590E-03       6    3    1         0.6072847652E-03      0.1051665011E-02
          0                 5           1             4   15     1      -0.1225096871E-03       4   15    1        -0.2505106685E-03      0.2881542768E-03
          0                 6           1             4   15     1      -0.1001403854E-03       4   15    1        -0.2049115371E-03      0.2065513172E-03
          0                 7           1             4   15     1      -0.8183689438E-04       4   15    1        -0.1674820936E-03      0.1679630888E-03

    ------------------------------------------------
       NWT REQUIRED            7 OUTER ITERATIONS 
       AND A TOTAL OF          9 INNER ITERATIONS.
    ------------------------------------------------

 NO OUTPUT CONTROL FOR STRESS PERIOD    2   TIME STEP    6
 
 SOLVING FOR HEAD 
                                                   Max.-Head-Change                         Max.-Flux-Residual
  Residual-Control   Outer-Iter.   Inner-Iter.     Column Row Layer    Maximum-Head-Change  Column Row Layer    Maximum-Flux-Residual          L2-NORM 
          0                 1           2             8   12     1       0.1662674994E-01       7   11    1         0.4330707869E+00      0.1202675863E+01
          0                 2           2             6    3     1       0.1476519398E-02       7   11    1         0.4304192628E-01      0.7397014315E-01
          0                 3           1             6    3     1       0.2081375994E-03       7   11    1         0.3808202087E-02      0.6842076065E-02
          0                 4           1             4   15     1      -0.1518971274E-03       6    3    1         0.4788317799E-03      0.8737032757E-03
          0                 5           1             4   15     1      -0.1221202967E-03       4   15    1        -0.2306334010E-03      0.2568919453E-03
          0                 6           1             4   15     1      -0.9805532972E-04       4   15    1        -0.1853331229E-03      0.1867011643E-03

    ------------------------------------------------
       NWT REQUIRED            6 OUTER ITERATIONS 
       AND A TOTAL OF          8 INNER ITERATIONS.
    ------------------------------------------------

 NO OUTPUT CONTROL FOR STRESS PERIOD    2   TIME STEP    7
 
 SOLVING FOR HEAD 
                                                   Max.-Head-Change                         Max.-Flux-Residual
  Residual-Control   Outer-Iter.   Inner-Iter.     Column Row Layer    Maximum-Head-Change  Column Row Layer    Maximum-Flux-Residual          L2-NORM 
          0                 1           2             8   12     1       0.1785308785E-01       7   11    1         0.4549592231E+00      0.1179479539E+01
          0                 2           2             7   11     1       0.1508870892E-02       7   11    1         0.4310015857E-01      0.6865251129E-01
          0                 3           1             4   15     1      -0.2122469051E-03       7   11    1         0.3553658305E-02      0.5874818226E-02
          0                 4           1             4   15     1      -0.1684633292E-03       6    3    1         0.3654910804E-03      0.7277506668E-03
          0                 5           1             4   15     1      -0.1328635285E-03       4   15    1        -0.2320457038E-03      0.2487308830E-03
          0                 6           1             4   15     1      -0.1046464145E-03       4   15    1        -0.1829176659E-03      0.1841488926E-03
          0                 7           1             4   15     1      -0.8239861176E-04       4   15    1        -0.1440549141E-03      0.1446533867E-03

    ------------------------------------------------
       NWT REQUIRED            7 OUTER ITERATIONS 
       AND A TOTAL OF          9 INNER ITERATIONS.
    ------------------------------------------------

 NO OUTPUT CONTROL FOR STRESS PERIOD    2   TIME STEP    8
 
 SOLVING FOR HEAD 
                                                   Max.-Head-Change                         Max.-Flux-Residual
  Residual-Control   Outer-Iter.   Inner-Iter.     Column Row Layer    Maximum-Head-Change  Column Row Layer    Maximum-Flux-Residual          L2-NORM 
          0                 1           2             8   12     1       0.1910194502E-01       7   11    1         0.4758399156E+00      0.1155353672E+01
          0                 2           2             7   11     1       0.1632264140E-02       7   11    1         0.4244556036E-01      0.6309863217E-01
          0                 3           1             4   15     1      -0.2216517388E-03       7   11    1         0.3202126367E-02      0.4915614113E-02
          0                 4           1             4   15     1      -0.1724920819E-03       7   11    1         0.2821171759E-03      0.5897722117E-03
          0                 5           1             4   15     1      -0.1332819968E-03       4   15    1        -0.2155117851E-03      0.2267194009E-03
          0                 6           1             4   15     1      -0.1028284061E-03       4   15    1        -0.1664272622E-03      0.1675792468E-03
          0                 7           1             4   15     1      -0.7930727378E-04       4   15    1        -0.1283845375E-03      0.1290189222E-03

    ------------------------------------------------
       NWT REQUIRED            7 OUTER ITERATIONS 
       AND A TOTAL OF          9 INNER ITERATIONS.
    ------------------------------------------------

 NO OUTPUT CONTROL FOR STRESS PERIOD    2   TIME STEP    9
 
 SOLVING FOR HEAD 
                                                   Max.-Head-Change                         Max.-Flux-Residual
  Residual-Control   Outer-Iter.   Inner-Iter.     Column Row Layer    Maximum-Head-Change  Column Row Layer    Maximum-Flux-Residual          L2-NORM 
          0                 1           2             7   11     1       0.2101548076E-01       7   11    1         0.4957921596E+00      0.1135405196E+01
          0                 2           2             7   11     1       0.1753907688E-02       7   11    1         0.4152690665E-01      0.5823124512E-01
          0                 3           1             4   15     1      -0.2391158685E-03       7   11    1         0.2832506496E-02      0.4121521376E-02
          0                 4           1             4   15     1      -0.1821276496E-03       4   15    1        -0.2717119017E-03      0.4920343339E-03
          0                 5           1             4   15     1      -0.1376591674E-03       4   15    1        -0.2063524990E-03      0.2143631840E-03
          0                 6           1             4   15     1      -0.1038751016E-03       4   15    1        -0.1558710430E-03      0.1570897049E-03
          0                 7           1             4   15     1      -0.7835386199E-04       4   15    1        -0.1176013289E-03      0.1183022315E-03

    ------------------------------------------------
       NWT REQUIRED            7 OUTER ITERATIONS 
       AND A TOTAL OF          9 INNER ITERATIONS.
    ------------------------------------------------

 OUTPUT CONTROL FOR STRESS PERIOD    2   TIME STEP   10
    PRINT BUDGET
    SAVE BUDGET

            WELLS   PERIOD    2   STEP  10
 WELL      1   LAYER   1   ROW     6   COL     4   RATE    -2.00000    
 WELL      2   LAYER   1   ROW     6   COL     5   RATE    -2.00000    
 WELL      3   LAYER   1   ROW     7   COL     4   RATE    -2.00000    
 WELL      4   LAYER   1   ROW     7   COL     5   RATE    -2.00000    
 WELL      5   LAYER   1   ROW     8   COL     4   RATE    -2.00000    
 WELL      6   LAYER   1   ROW     8   COL     5   RATE    -2.00000    
 WELL      7   LAYER   1   ROW     9   COL     4   RATE    -2.00000    
 WELL      8   LAYER   1   ROW     9   COL     5   RATE    -2.00000    
 WELL      9   LAYER   1   ROW    10   COL     4   RATE    -2.00000    
 WELL     10   LAYER   1   ROW    10   COL     5   RATE    -2.00000    

  HEAD DEP BOUNDS   PERIOD    2   STEP    10
 BOUNDARY      1   LAYER   1   ROW    13   COL     1   RATE   -0.281199    
 BOUNDARY      2   LAYER   1   ROW    14   COL     9   RATE    0.206483    



 STREAM LISTING     PERIOD      2   STEP       10

 LAYER ROW COL. STREAM  RCH.  FLOW INTO     FLOW TO   FLOW OUT OF   OVRLND.     DIRECT     STREAM       STREAM     STREAM     STREAM   STREAMBED  STREAMBED
                SEG.NO.  NO.  STRM. RCH.    AQUIFER    STRM. RCH.    RUNOFF     PRECIP       ET          HEAD       DEPTH      WIDTH   CONDCTNC.   GRADIENT

   1    1    1     1     1    2.5000E+01  1.1728E+00   2.3827E+01  0.000E+00  0.000E+00  0.000E+00  1.09422E+03  1.171E+00  1.295E+01  5.825E-01  6.711E-01
   1    2    2     1     2    2.3827E+01  2.6836E+00   2.1144E+01  0.000E+00  0.000E+00  0.000E+00  1.08920E+03  1.141E+00  1.255E+01  8.783E-01  1.019E+00
   1    3    3     1     3    2.1144E+01  2.9248E+00   1.8219E+01  0.000E+00  0.000E+00  0.000E+00  1.08351E+03  1.095E+00  1.190E+01  7.143E-01  1.365E+00
   1    3    4     1     4    1.8219E+01  2.4854E+00   1.5733E+01  0.000E+00  0.000E+00  0.000E+00  1.07846E+03  1.049E+00  1.106E+01  6.138E-01  1.350E+00
   1    4    5     2     1    5.7333E+00  2.6720E+00   3.0613E+00  0.000E+00  0.000E+00  0.000E+00  1.07236E+03  4.257E-01  1.200E+01  7.800E-01  1.142E+00
   1    5    6     2     2    3.0613E+00  1.9630E+00   1.0983E+00  0.000E+00  0.000E+00  0.000E+00  1.06678E+03  2.716E-01  1.200E+01  6.000E-01  1.091E+00
   1    6    6     2     3    1.0983E+00  1.0983E+00   0.0000E+00  0.000E+00  0.000E+00  0.000E+00  1.06183E+03  4.166E-02  1.200E+01  6.000E-01  1.014E+00
   1    7    6     2     4    0.0000E+00  0.0000E+00   0.0000E+00  0.000E+00  0.000E+00  0.000E+00  1.05708E+03  0.000E+00  1.200E+01  6.000E-01  1.000E+00
   1    8    6     2     5    0.0000E+00  0.0000E+00   0.0000E+00  0.000E+00  0.000E+00  0.000E+00  1.05236E+03  0.000E+00  1.200E+01  6.000E-01  1.000E+00
   1    3    5     3     1    1.0000E+01  1.9938E+00   8.0062E+00  0.000E+00  0.000E+00  0.000E+00  1.07555E+03  1.909E+00  9.636E+00  7.227E-01  1.379E+00
   1    3    6     3     2    8.0062E+00  1.7668E+00   6.2394E+00  0.000E+00  0.000E+00  0.000E+00  1.07264E+03  1.727E+00  8.909E+00  6.682E-01  1.322E+00
   1    3    7     3     3    6.2394E+00  1.2603E+00   4.9791E+00  0.000E+00  0.000E+00  0.000E+00  1.06987E+03  1.555E+00  8.218E+00  5.547E-01  1.136E+00
   1    4    8     3     4    4.9791E+00  1.6014E+00   3.3776E+00  0.000E+00  0.000E+00  0.000E+00  1.06682E+03  1.364E+00  7.455E+00  6.709E-01  1.193E+00
   1    5    8     3     5    3.3776E+00  1.5790E+00   1.7986E+00  0.000E+00  0.000E+00  0.000E+00  1.06362E+03  1.164E+00  6.655E+00  4.991E-01  1.582E+00
   1    6    8     3     6    1.7986E+00  5.5980E-01   1.2388E+00  0.000E+00  0.000E+00  0.000E+00  1.06158E+03  1.036E+00  6.145E+00  1.844E-01  1.518E+00
   1    5   10     4     1    1.0000E+01  9.0525E-01   9.0947E+00  0.000E+00  0.000E+00  0.000E+00  1.07835E+03  6.210E-01  1.000E+01  2.500E-01  1.207E+00
   1    5    9     4     2    9.0947E+00  1.7835E+00   7.3113E+00  0.000E+00  0.000E+00  0.000E+00  1.07148E+03  5.670E-01  1.000E+01  5.000E-01  1.189E+00
   1    6    8     4     3    7.3113E+00  1.2257E+00   6.0855E+00  0.000E+00  0.000E+00  0.000E+00  1.06368E+03  5.021E-01  1.000E+01  3.500E-01  1.167E+00
   1    6    8     5     1    7.3244E+00  3.7227E-01   6.9521E+00  0.000E+00  0.000E+00  0.000E+00  1.05860E+03  5.969E-01  1.236E+01  4.943E-01  2.510E-01
   1    7    7     5     2    6.9521E+00  1.3320E+00   5.6201E+00  0.000E+00  0.000E+00  0.000E+00  1.05407E+03  5.709E-01  1.145E+01  5.725E-01  7.756E-01
   1    8    7     5     3    5.6201E+00  9.9414E-01   4.6259E+00  0.000E+00  0.000E+00  0.000E+00  1.04978E+03  5.314E-01  1.013E+01  3.545E-01  9.349E-01
   1    8    6     5     4    4.6259E+00  7.8942E-01   3.8365E+00  0.000E+00  0.000E+00  0.000E+00  1.04675E+03  4.970E-01  9.030E+00  2.257E-01  1.166E+00
   1    9    6     6     1    3.8365E+00  1.9985E+00   1.8380E+00  0.000E+00  0.000E+00  0.000E+00  1.04306E+03  3.309E-01  1.200E+01  6.000E-01  1.110E+00
   1   10    7     6     2    1.8380E+00  1.3044E+00   5.3361E-01  0.000E+00  0.000E+00  0.000E+00  1.03838E+03  1.961E-01  1.200E+01  6.000E-01  7.246E-01
   1   11    7     6     3    5.3361E-01  5.3361E-01   0.0000E+00  0.000E+00  0.000E+00  0.000E+00  1.03366E+03  2.732E-02  1.200E+01  6.000E-01  9.582E-01
   1   12    7     6     4    0.0000E+00  0.0000E+00   0.0000E+00  0.000E+00  0.000E+00  0.000E+00  1.02909E+03  0.000E+00  1.200E+01  6.000E-01  6.871E-01
   1   13    7     6     5    0.0000E+00 -8.0404E-01   8.0404E-01  0.000E+00  0.000E+00  0.000E+00  1.02601E+03  1.025E-01  1.200E+01  2.400E-01 -1.117E+00
   1   14    9     7     1    1.5000E+02  1.6847E+00   1.4832E+02  0.000E+00  0.000E+00  0.000E+00  1.03987E+03  2.287E+00  5.529E+01  5.593E+00  1.004E-01
   1   13    8     7     2    1.4832E+02  1.7545E+00   1.4656E+02  0.000E+00  0.000E+00  0.000E+00  1.03478E+03  2.278E+00  5.525E+01  6.147E+00  9.514E-02
   1   13    7     7     3    1.4656E+02  1.8188E+00   1.4474E+02  0.000E+00  0.000E+00  0.000E+00  1.02969E+03  2.268E+00  5.521E+01  5.583E+00  1.086E-01
   1   13    6     8     1    1.4555E+02  5.5139E-01   1.4499E+02  0.000E+00  0.000E+00  0.000E+00  1.02466E+03  2.783E+00  4.036E+01  4.112E+00  4.469E-02
   1   13    5     8     2    1.4499E+02 -1.1701E-01   1.4511E+02  0.000E+00  0.000E+00  0.000E+00  1.01841E+03  2.782E+00  4.033E+01  4.110E+00 -9.489E-03
   1   13    4     8     3    1.4511E+02 -9.4604E-01   1.4606E+02  0.000E+00  0.000E+00  0.000E+00  1.01216E+03  2.785E+00  4.039E+01  4.116E+00 -7.662E-02
   1   13    3     8     4    1.4606E+02 -1.6299E+00   1.4769E+02  0.000E+00  0.000E+00  0.000E+00  1.00592E+03  2.795E+00  4.052E+01  4.129E+00 -1.316E-01
   1   13    2     8     5    1.4769E+02 -1.8714E+00   1.4956E+02  0.000E+00  0.000E+00  0.000E+00  9.99682E+02  2.807E+00  4.070E+01  4.148E+00 -1.504E-01
   1   13    1     8     6    1.4956E+02 -1.7626E+00   1.5132E+02  0.000E+00  0.000E+00  0.000E+00  9.94695E+02  2.820E+00  4.089E+01  2.500E+00 -2.350E-01



 UBDSV3 SAVING "           GW ET" ON UNIT  61 AT TIME STEP 10, STRESS PERIOD 2
 UBDSV3 SAVING "    UZF RECHARGE" ON UNIT  61 AT TIME STEP 10, STRESS PERIOD 2
 UBDSV3 SAVING " SURFACE LEAKAGE" ON UNIT  61 AT TIME STEP 10, STRESS PERIOD 2
 UBDSV3 SAVING "       HORT+DUNN" ON UNIT  61 AT TIME STEP 10, STRESS PERIOD 2
 UBDSV3 SAVING "  STORAGE CHANGE" ON UNIT  61 AT TIME STEP 10, STRESS PERIOD 2


UNSATURATED ZONE PACKAGE VOLUMETRIC BUDGET FOR  TIME STEP    10 STRESS PERIOD    2
  ------------------------------------------------------------------------------



     CUMULATIVE VOLUMES      L**3       RATES FOR THIS TIME STEP      L**3/T
     ------------------                 ------------------------

           IN:                                      IN:
           ---                                      ---
        INFILTRATION =   111648524.4121          INFILTRATION =          67.8000

          OUT:                                     OUT:
          ----                                     ----
              UZF ET =   160801516.3071                UZF ET =         121.9065
        UZF RECHARGE =    34385445.2952          UZF RECHARGE =           8.6790

            IN - OUT =   -83538437.1902              IN - OUT =         -62.7855

          STORAGE:                                 STORAGE:
          --------                                 --------
      STORAGE CHANGE =   -83511889.3264        STORAGE CHANGE =         -62.7616

 PERCENT DISCREPANCY IS DIFFERENCE BETWEEN IN-OUT MINUS CHANGE IN STORAGE
 DIVIDED BY THE AVERAGE OF IN AND OUT TIMES 100

 PERCENT DISCREPANCY =          -0.00     PERCENT DISCREPANCY =          -0.02






1
  VOLUMETRIC BUDGET FOR ENTIRE MODEL AT END OF TIME STEP   10, STRESS PERIOD   2
  ------------------------------------------------------------------------------

     CUMULATIVE VOLUMES      L**3       RATES FOR THIS TIME STEP      L**3/T
     ------------------                 ------------------------

           IN:                                      IN:
           ---                                      ---
             STORAGE     =       64231.1172               STORAGE     =       3.9184E-02
       CONSTANT HEAD     =           0.0000         CONSTANT HEAD     =           0.0000
               WELLS     =           0.0000                 WELLS     =           0.0000
     HEAD DEP BOUNDS     =      818605.4375       HEAD DEP BOUNDS     =           0.2065
      STREAM LEAKAGE     =   162655344.0000        STREAM LEAKAGE     =          40.8094
        UZF RECHARGE     =    34385460.0000          UZF RECHARGE     =           8.6790
               GW ET     =           0.0000                 GW ET     =           0.0000
     SURFACE LEAKAGE     =           0.0000       SURFACE LEAKAGE     =           0.0000

                TOTAL IN =   197923632.0000                  TOTAL IN =          49.7340

          OUT:                                     OUT:
          ----                                     ----
             STORAGE     =    10444565.0000               STORAGE     =           7.0484
       CONSTANT HEAD     =           0.0000         CONSTANT HEAD     =           0.0000
               WELLS     =    78924664.0000                 WELLS     =          20.0000
     HEAD DEP BOUNDS     =     1107525.0000       HEAD DEP BOUNDS     =           0.2812
      STREAM LEAKAGE     =    27167828.0000        STREAM LEAKAGE     =           7.1310
        UZF RECHARGE     =           0.0000          UZF RECHARGE     =           0.0000
               GW ET     =    80279152.0000                 GW ET     =          15.2735
     SURFACE LEAKAGE     =           0.0000       SURFACE LEAKAGE     =           0.0000

               TOTAL OUT =   197923744.0000                 TOTAL OUT =          49.7341

                IN - OUT =        -112.0000                  IN - OUT =      -9.9182E-05

     PERCENT DISCREPANCY =          -0.00         PERCENT DISCREPANCY =          -0.00






         TIME SUMMARY AT END OF TIME STEP   10 IN STRESS PERIOD    2
                    SECONDS     MINUTES      HOURS       DAYS        YEARS
                    -----------------------------------------------------------
   TIME STEP LENGTH 1.95033E+05  3250.6      54.176      2.2573     6.18023E-03
 STRESS PERIOD TIME 1.31823E+06  21971.      366.18      15.257     4.17723E-02
         TOTAL TIME 3.94623E+06  65771.      1096.2      45.674     0.12505    
1
 
 SOLVING FOR HEAD 
                                                   Max.-Head-Change                         Max.-Flux-Residual
  Residual-Control   Outer-Iter.   Inner-Iter.     Column Row Layer    Maximum-Head-Change  Column Row Layer    Maximum-Flux-Residual          L2-NORM 
          0                 1           2             7   11     1       0.2394929731E-01       7   11    1         0.5144234582E+00      0.1116754604E+01
          0                 2           2             7   11     1       0.1858334896E-02       7   11    1         0.4006866296E-01      0.5352807377E-01
          0                 3           1             4   15     1      -0.2588815962E-03       7   11    1         0.2416792888E-02      0.3414292787E-02
          0                 4           1             4   15     1      -0.1926851716E-03       4   15    1        -0.2667638687E-03      0.4204152331E-03
          0                 5           1             4   15     1      -0.1422410279E-03       4   15    1        -0.1979304420E-03      0.2043557476E-03
          0                 6           1             4   15     1      -0.1048132828E-03       4   15    1        -0.1460126869E-03      0.1473213400E-03
          0                 7           1             4   15     1      -0.7720299879E-04       4   15    1        -0.1075761586E-03      0.1083639632E-03

    ------------------------------------------------
       NWT REQUIRED            7 OUTER ITERATIONS 
       AND A TOTAL OF          9 INNER ITERATIONS.
    ------------------------------------------------

 NO OUTPUT CONTROL FOR STRESS PERIOD    2   TIME STEP   11
 
 SOLVING FOR HEAD 
                                                   Max.-Head-Change                         Max.-Flux-Residual
  Residual-Control   Outer-Iter.   Inner-Iter.     Column Row Layer    Maximum-Head-Change  Column Row Layer    Maximum-Flux-Residual          L2-NORM 
          0                 1           2             7   11     1       0.2716874791E-01       7   11    1         0.5314073721E+00      0.1099126098E+01
          0                 2           2             7   11     1       0.1937195497E-02       7   11    1         0.3804509282E-01      0.4895973594E-01
          0                 3           1             4   15     1      -0.2796032829E-03       7   11    1         0.1964373173E-02      0.2796829200E-02
          0                 4           1             4   15     1      -0.2030385458E-03       4   15    1        -0.2612103545E-03      0.3720150086E-03
          0                 5           1             4   15     1      -0.1461520700E-03       4   15    1        -0.1890451334E-03      0.1948572730E-03
          0                 6           1             4   15     1      -0.1049978218E-03       4   15    1        -0.1359773117E-03      0.1374212356E-03
          0                 7           1             4   15     1      -0.7539878626E-04       4   15    1        -0.9767167523E-04      0.9853876722E-04

    ------------------------------------------------
       NWT REQUIRED            7 OUTER ITERATIONS 
       AND A TOTAL OF          9 INNER ITERATIONS.
    ------------------------------------------------

 NO OUTPUT CONTROL FOR STRESS PERIOD    2   TIME STEP   12
 
 SOLVING FOR HEAD 
                                                   Max.-Head-Change                         Max.-Flux-Residual
  Residual-Control   Outer-Iter.   Inner-Iter.     Column Row Layer    Maximum-Head-Change  Column Row Layer    Maximum-Flux-Residual          L2-NORM 
          0                 1           2             7   11     1       0.3066762373E-01       7   11    1         0.5463052238E+00      0.1083338997E+01
          0                 2           2             7   11     1       0.2063149735E-02       7   11    1         0.3691683633E-01      0.4618585006E-01
          0                 3           1             4   15     1      -0.3008082732E-03       7   11    1         0.1672504251E-02      0.2478827562E-02
          0                 4           1             4   15     1      -0.2127694731E-03       4   15    1        -0.2547125409E-03      0.3513659345E-03
          0                 5           1             4   15     1      -0.1490974652E-03       4   15    1        -0.1795160493E-03      0.1854259740E-03
          0                 6           1             4   15     1      -0.1042580243E-03       4   15    1        -0.1256925303E-03      0.1272987537E-03
          0                 7           1             4   15     1      -0.7286821925E-04       4   15    1        -0.8787546977E-04      0.8890640466E-04

    ------------------------------------------------
       NWT REQUIRED            7 OUTER ITERATIONS 
       AND A TOTAL OF          9 INNER ITERATIONS.
    ------------------------------------------------

 NO OUTPUT CONTROL FOR STRESS PERIOD    2   TIME STEP   13
 
 SOLVING FOR HEAD 
                                                   Max.-Head-Change                         Max.-Flux-Residual
  Residual-Control   Outer-Iter.   Inner-Iter.     Column Row Layer    Maximum-Head-Change  Column Row Layer    Maximum-Flux-Residual          L2-NORM 
          0                 1           2             5    3     1       0.1319486673E+00       5    3    1         0.1164672991E+01      0.1578713655E+01
          0                 2           2             5    3     1       0.4209227485E-01       5    3    1         0.3719576022E+00      0.3836749528E+00
          0                 3           2             5    3     1       0.1342289642E-01       5    3    1         0.1186184911E+00      0.1205321004E+00
          0                 4           1             5    3     1       0.4280355497E-02       5    3    1         0.3782653648E-01      0.3839778240E-01
          0                 5           1             5    3     1       0.1364936436E-02       5    3    1         0.1206225437E-01      0.1224360136E-01
          0                 6           1             5    3     1       0.4352560763E-03       5    3    1         0.3846465143E-02      0.3905548514E-02
          0                 7           1             5    3     1       0.1387960839E-03       5    3    1         0.1226574972E-02      0.1247411459E-02
          0                 8           1             4   15     1      -0.4728078204E-04       5    3    1         0.3911348784E-03      0.4005849625E-03

    ------------------------------------------------
       NWT REQUIRED            8 OUTER ITERATIONS 
       AND A TOTAL OF         11 INNER ITERATIONS.
    ------------------------------------------------

 NO OUTPUT CONTROL FOR STRESS PERIOD    2   TIME STEP   14
 
 SOLVING FOR HEAD 
                                                   Max.-Head-Change                         Max.-Flux-Residual
  Residual-Control   Outer-Iter.   Inner-Iter.     Column Row Layer    Maximum-Head-Change  Column Row Layer    Maximum-Flux-Residual          L2-NORM 
          0                 1           2             5    3     1       0.1216670465E+00       5    3    1         0.9835521046E+00      0.1644259950E+01
          0                 2           2             5    3     1       0.3863290212E-01       5    3    1         0.3130873692E+00      0.3675789966E+00
          0                 3           2             5    3     1       0.1231334515E-01       5    3    1         0.9977968256E-01      0.1131592922E+00
          0                 4           2             5    3     1       0.3924400352E-02       5    3    1         0.3180374786E-01      0.3588252454E-01
          0                 5           1             5    3     1       0.1250709922E-02       5    3    1         0.1013595547E-01      0.1139722410E-01
          0                 6           1             5    3     1       0.3985902535E-03       5    3    1         0.3230334104E-02      0.3622411027E-02
          0                 7           1             5    3     1       0.1270234589E-03       5    3    1         0.1029469979E-02      0.1152746830E-02
          0                 8           1             4   15     1      -0.4245085216E-04       5    3    1         0.3280712491E-03      0.3683195466E-03

    ------------------------------------------------
       NWT REQUIRED            8 OUTER ITERATIONS 
       AND A TOTAL OF         12 INNER ITERATIONS.
    ------------------------------------------------

 OUTPUT CONTROL FOR STRESS PERIOD    2   TIME STEP   15
    PRINT BUDGET
    PRINT HEAD FOR ALL LAYERS
    SAVE HEAD FOR ALL LAYERS
    SAVE BUDGET

            WELLS   PERIOD    2   STEP  15
 WELL      1   LAYER   1   ROW     6   COL     4   RATE    -2.00000    
 WELL      2   LAYER   1   ROW     6   COL     5   RATE    -2.00000    
 WELL      3   LAYER   1   ROW     7   COL     4   RATE    -2.00000    
 WELL      4   LAYER   1   ROW     7   COL     5   RATE    -2.00000    
 WELL      5   LAYER   1   ROW     8   COL     4   RATE    -2.00000    
 WELL      6   LAYER   1   ROW     8   COL     5   RATE    -2.00000    
 WELL      7   LAYER   1   ROW     9   COL     4   RATE    -2.00000    
 WELL      8   LAYER   1   ROW     9   COL     5   RATE    -2.00000    
 WELL      9   LAYER   1   ROW    10   COL     4   RATE    -2.00000    
 WELL     10   LAYER   1   ROW    10   COL     5   RATE    -2.00000    

  HEAD DEP BOUNDS   PERIOD    2   STEP    15
 BOUNDARY      1   LAYER   1   ROW    13   COL     1   RATE   -0.281482    
 BOUNDARY      2   LAYER   1   ROW    14   COL     9   RATE    0.206274    



 STREAM LISTING     PERIOD      2   STEP       15

 LAYER ROW COL. STREAM  RCH.  FLOW INTO     FLOW TO   FLOW OUT OF   OVRLND.     DIRECT     STREAM       STREAM     STREAM     STREAM   STREAMBED  STREAMBED
                SEG.NO.  NO.  STRM. RCH.    AQUIFER    STRM. RCH.    RUNOFF     PRECIP       ET          HEAD       DEPTH      WIDTH   CONDCTNC.   GRADIENT

   1    1    1     1     1    2.5000E+01  1.1535E+00   2.3846E+01  0.000E+00  0.000E+00  0.000E+00  1.09422E+03  1.172E+00  1.295E+01  5.826E-01  6.600E-01
   1    2    2     1     2    2.3846E+01  2.6437E+00   2.1203E+01  0.000E+00  0.000E+00  0.000E+00  1.08920E+03  1.142E+00  1.255E+01  8.788E-01  1.003E+00
   1    3    3     1     3    2.1203E+01  2.9297E+00   1.8273E+01  0.000E+00  0.000E+00  0.000E+00  1.08351E+03  1.096E+00  1.192E+01  7.153E-01  1.365E+00
   1    3    4     1     4    1.8273E+01  2.4898E+00   1.5783E+01  0.000E+00  0.000E+00  0.000E+00  1.07846E+03  1.050E+00  1.108E+01  6.148E-01  1.350E+00
   1    4    5     2     1    5.7833E+00  2.6742E+00   3.1091E+00  0.000E+00  0.000E+00  0.000E+00  1.07236E+03  4.285E-01  1.200E+01  7.800E-01  1.143E+00
   1    5    6     2     2    3.1091E+00  1.9652E+00   1.1439E+00  0.000E+00  0.000E+00  0.000E+00  1.06678E+03  2.753E-01  1.200E+01  6.000E-01  1.092E+00
   1    6    6     2     3    1.1439E+00  1.1439E+00   0.0000E+00  0.000E+00  0.000E+00  0.000E+00  1.06184E+03  4.269E-02  1.200E+01  6.000E-01  1.014E+00
   1    7    6     2     4    0.0000E+00  0.0000E+00   0.0000E+00  0.000E+00  0.000E+00  0.000E+00  1.05708E+03  0.000E+00  1.200E+01  6.000E-01  1.000E+00
   1    8    6     2     5    0.0000E+00  0.0000E+00   0.0000E+00  0.000E+00  0.000E+00  0.000E+00  1.05236E+03  0.000E+00  1.200E+01  6.000E-01  1.000E+00
   1    3    5     3     1    1.0000E+01  1.7094E+00   8.2906E+00  0.000E+00  0.000E+00  0.000E+00  1.07555E+03  1.909E+00  9.636E+00  7.227E-01  1.183E+00
   1    3    6     3     2    8.2906E+00  1.6756E+00   6.6150E+00  0.000E+00  0.000E+00  0.000E+00  1.07264E+03  1.727E+00  8.909E+00  6.682E-01  1.254E+00
   1    3    7     3     3    6.6150E+00  1.2349E+00   5.3801E+00  0.000E+00  0.000E+00  0.000E+00  1.06987E+03  1.555E+00  8.218E+00  5.547E-01  1.113E+00
   1    4    8     3     4    5.3801E+00  1.5593E+00   3.8209E+00  0.000E+00  0.000E+00  0.000E+00  1.06682E+03  1.364E+00  7.455E+00  6.709E-01  1.162E+00
   1    5    8     3     5    3.8209E+00  1.5790E+00   2.2419E+00  0.000E+00  0.000E+00  0.000E+00  1.06362E+03  1.164E+00  6.655E+00  4.991E-01  1.582E+00
   1    6    8     3     6    2.2419E+00  5.5980E-01   1.6821E+00  0.000E+00  0.000E+00  0.000E+00  1.06158E+03  1.036E+00  6.145E+00  1.844E-01  1.518E+00
   1    5   10     4     1    1.0000E+01  9.0525E-01   9.0947E+00  0.000E+00  0.000E+00  0.000E+00  1.07835E+03  6.210E-01  1.000E+01  2.500E-01  1.207E+00
   1    5    9     4     2    9.0947E+00  1.7835E+00   7.3113E+00  0.000E+00  0.000E+00  0.000E+00  1.07148E+03  5.670E-01  1.000E+01  5.000E-01  1.189E+00
   1    6    8     4     3    7.3113E+00  1.2257E+00   6.0855E+00  0.000E+00  0.000E+00  0.000E+00  1.06368E+03  5.021E-01  1.000E+01  3.500E-01  1.167E+00
   1    6    8     5     1    7.7676E+00  3.6467E-01   7.4030E+00  0.000E+00  0.000E+00  0.000E+00  1.05861E+03  6.097E-01  1.282E+01  5.127E-01  2.371E-01
   1    7    7     5     2    7.4030E+00  1.3685E+00   6.0345E+00  0.000E+00  0.000E+00  0.000E+00  1.05408E+03  5.843E-01  1.192E+01  5.958E-01  7.656E-01
   1    8    7     5     3    6.0345E+00  1.0376E+00   4.9969E+00  0.000E+00  0.000E+00  0.000E+00  1.04980E+03  5.454E-01  1.059E+01  3.705E-01  9.335E-01
   1    8    6     5     4    4.9969E+00  8.3129E-01   4.1656E+00  0.000E+00  0.000E+00  0.000E+00  1.04676E+03  5.111E-01  9.471E+00  2.368E-01  1.170E+00
   1    9    6     6     1    4.1656E+00  2.0118E+00   2.1538E+00  0.000E+00  0.000E+00  0.000E+00  1.04308E+03  3.530E-01  1.200E+01  6.000E-01  1.118E+00
   1   10    7     6     2    2.1538E+00  1.2840E+00   8.6979E-01  0.000E+00  0.000E+00  0.000E+00  1.03841E+03  2.268E-01  1.200E+01  6.000E-01  7.134E-01
   1   11    7     6     3    8.6979E-01  8.6979E-01   0.0000E+00  0.000E+00  0.000E+00  0.000E+00  1.03365E+03  1.831E-02  1.200E+01  6.000E-01  8.939E-01
   1   12    7     6     4    0.0000E+00  0.0000E+00   0.0000E+00  0.000E+00  0.000E+00  0.000E+00  1.02909E+03  0.000E+00  1.200E+01  6.000E-01  6.641E-01
   1   13    7     6     5    0.0000E+00 -8.0488E-01   8.0488E-01  0.000E+00  0.000E+00  0.000E+00  1.02601E+03  1.025E-01  1.200E+01  2.400E-01 -1.118E+00
   1   14    9     7     1    1.5000E+02  1.6543E+00   1.4835E+02  0.000E+00  0.000E+00  0.000E+00  1.03987E+03  2.287E+00  5.529E+01  5.593E+00  9.860E-02
   1   13    8     7     2    1.4835E+02  1.7264E+00   1.4662E+02  0.000E+00  0.000E+00  0.000E+00  1.03478E+03  2.278E+00  5.525E+01  6.147E+00  9.362E-02
   1   13    7     7     3    1.4662E+02  1.8008E+00   1.4482E+02  0.000E+00  0.000E+00  0.000E+00  1.02969E+03  2.268E+00  5.521E+01  5.584E+00  1.075E-01
   1   13    6     8     1    1.4562E+02  5.2786E-01   1.4510E+02  0.000E+00  0.000E+00  0.000E+00  1.02466E+03  2.784E+00  4.037E+01  4.113E+00  4.278E-02
   1   13    5     8     2    1.4510E+02 -1.8172E-01   1.4528E+02  0.000E+00  0.000E+00  0.000E+00  1.01841E+03  2.783E+00  4.035E+01  4.112E+00 -1.473E-02
   1   13    4     8     3    1.4528E+02 -9.7613E-01   1.4625E+02  0.000E+00  0.000E+00  0.000E+00  1.01216E+03  2.787E+00  4.041E+01  4.118E+00 -7.902E-02
   1   13    3     8     4    1.4625E+02 -1.6426E+00   1.4790E+02  0.000E+00  0.000E+00  0.000E+00  1.00592E+03  2.796E+00  4.054E+01  4.132E+00 -1.325E-01
   1   13    2     8     5    1.4790E+02 -1.9072E+00   1.4980E+02  0.000E+00  0.000E+00  0.000E+00  9.99684E+02  2.809E+00  4.073E+01  4.150E+00 -1.532E-01
   1   13    1     8     6    1.4980E+02 -1.7779E+00   1.5158E+02  0.000E+00  0.000E+00  0.000E+00  9.94697E+02  2.822E+00  4.091E+01  2.502E+00 -2.369E-01



 UBDSV3 SAVING "           GW ET" ON UNIT  61 AT TIME STEP 15, STRESS PERIOD 2
 UBDSV3 SAVING "    UZF RECHARGE" ON UNIT  61 AT TIME STEP 15, STRESS PERIOD 2
 UBDSV3 SAVING " SURFACE LEAKAGE" ON UNIT  61 AT TIME STEP 15, STRESS PERIOD 2
 UBDSV3 SAVING "       HORT+DUNN" ON UNIT  61 AT TIME STEP 15, STRESS PERIOD 2
 UBDSV3 SAVING "  STORAGE CHANGE" ON UNIT  61 AT TIME STEP 15, STRESS PERIOD 2


UNSATURATED ZONE PACKAGE VOLUMETRIC BUDGET FOR  TIME STEP    15 STRESS PERIOD    2
  ------------------------------------------------------------------------------



     CUMULATIVE VOLUMES      L**3       RATES FOR THIS TIME STEP      L**3/T
     ------------------                 ------------------------

           IN:                                      IN:
           ---                                      ---
        INFILTRATION =   200450682.6777          INFILTRATION =          67.8000

          OUT:                                     OUT:
          ----                                     ----
              UZF ET =   320359977.6450                UZF ET =         121.7606
        UZF RECHARGE =    46691761.5889          UZF RECHARGE =          11.1133

            IN - OUT =  -166601056.5562              IN - OUT =         -65.0739

          STORAGE:                                 STORAGE:
          --------                                 --------
      STORAGE CHANGE =  -166563489.5757        STORAGE CHANGE =         -65.1131

 PERCENT DISCREPANCY IS DIFFERENCE BETWEEN IN-OUT MINUS CHANGE IN STORAGE
 DIVIDED BY THE AVERAGE OF IN AND OUT TIMES 100

 PERCENT DISCREPANCY =          -0.00     PERCENT DISCREPANCY =           0.03






1
              HEAD IN LAYER 1 AT END OF TIME STEP 15 IN STRESS PERIOD 2
  ---------------------------------------------------------------------------

           1       2       3       4       5       6       7       8       9      10
 ...................................................................................
   1  1092.24 1087.67 6999.00 6999.00 6999.00 6999.00 6999.00 6999.00 6999.00 6999.00
   2  1087.74 1086.19 1078.13 6999.00 6999.00 1069.41 1069.25 1068.70 6999.00 6999.00
   3  6999.00 1074.76 1078.51 1073.81 1073.18 1070.13 1067.65 1065.86 6999.00 6999.00
   4  1065.89 1065.83 1064.69 1063.34 1065.98 1061.10 1059.53 1064.49 1062.06 6999.00
   5  1062.53 1059.26 1055.52 1053.09 1055.33 1060.29 1057.00 1060.43 1064.24 1065.52
   6  1058.73 1054.02 1049.36 1037.03 1040.42 1052.70 1053.78 1057.90 1057.58 1063.16
   7  1055.86 1048.97 1043.89 1028.24 1032.23 1045.33 1051.79 1052.48 1053.29 6999.00
   8  6999.00 1042.99 1039.15 1024.39 1028.02 1042.42 1046.99 1047.28 1049.78 6999.00
   9  6999.00 1037.07 1034.33 1020.59 1024.74 1039.65 1039.93 1041.41 1045.48 6999.00
  10  6999.00 1031.22 1029.82 1018.74 1021.47 1031.94 1036.27 1037.10 1041.76 1046.49
  11  6999.00 1023.71 1024.15 1023.68 1025.35 1028.59 1030.97 1033.68 1037.81 6999.00
  12  1006.68 1013.38 1015.78 1019.35 1022.12 1025.06 1027.10 1030.31 1035.17 6999.00
  13   995.41 1000.14 1006.32 1012.40 1018.45 1024.53 1029.37 1034.50 1035.83 6999.00
  14  6999.00 1012.46 1017.21 1021.75 1025.60 1028.77 1031.43 1034.74 1039.57 6999.00
  15  6999.00 6999.00 1026.37 1028.60 1031.13 1032.87 6999.00 6999.00 6999.00 6999.00
1
              HEAD IN LAYER 2 AT END OF TIME STEP 15 IN STRESS PERIOD 2
  ---------------------------------------------------------------------------

           1       2       3       4       5       6       7       8       9      10
 ...................................................................................
   1  1091.05 1087.10 6999.00 6999.00 6999.00 6999.00 6999.00 6999.00 6999.00 6999.00
   2  1087.49 1080.68 1075.21 6999.00 6999.00 1068.80 1068.71 1068.32 6999.00 6999.00
   3  6999.00 1072.54 1067.81 1063.98 1063.30 1063.84 1064.52 1065.29 6999.00 6999.00
   4  1065.18 1065.03 1061.97 1058.46 1057.03 1056.57 1057.98 1061.51 1061.65 6999.00
   5  1061.79 1058.45 1055.15 1052.96 1052.71 1053.11 1053.57 1055.57 1059.68 1063.71
   6  1058.04 1053.35 1049.46 1047.63 1047.93 1049.34 1050.79 1052.82 1056.66 1062.81
   7  1055.14 1048.36 1044.30 1042.70 1043.41 1045.22 1047.34 1049.99 1053.13 6999.00
   8  6999.00 1042.56 1039.50 1038.24 1039.13 1041.01 1043.04 1046.87 1049.45 6999.00
   9  6999.00 1036.56 1034.62 1033.94 1035.00 1036.90 1038.51 1041.18 1045.13 6999.00
  10  6999.00 1030.73 1030.02 1030.25 1031.50 1033.28 1034.66 1036.88 1041.31 1046.49
  11  6999.00 1023.78 1024.73 1027.03 1028.67 1030.44 1031.88 1033.76 1037.48 6999.00
  12  1006.96 1014.61 1019.54 1023.30 1025.94 1028.19 1029.83 1031.51 1035.10 6999.00
  13  1000.23 1007.65 1015.55 1020.77 1024.26 1027.16 1029.72 1032.50 1035.37 6999.00
  14  6999.00 1012.72 1017.51 1021.96 1025.58 1028.57 1031.06 1034.27 1036.89 6999.00
  15  6999.00 6999.00 1026.37 1028.60 1030.68 1032.41 6999.00 6999.00 6999.00 6999.00

 HEAD WILL BE SAVED ON UNIT   58 AT END OF TIME STEP   15, STRESS PERIOD    2
1
  VOLUMETRIC BUDGET FOR ENTIRE MODEL AT END OF TIME STEP   15, STRESS PERIOD   2
  ------------------------------------------------------------------------------

     CUMULATIVE VOLUMES      L**3       RATES FOR THIS TIME STEP      L**3/T
     ------------------                 ------------------------

           IN:                                      IN:
           ---                                      ---
             STORAGE     =      120405.4844               STORAGE     =       4.3128E-02
       CONSTANT HEAD     =           0.0000         CONSTANT HEAD     =           0.0000
               WELLS     =           0.0000                 WELLS     =           0.0000
     HEAD DEP BOUNDS     =     1088850.3750       HEAD DEP BOUNDS     =           0.2063
      STREAM LEAKAGE     =   216012432.0000        STREAM LEAKAGE     =          40.7094
        UZF RECHARGE     =    46691780.0000          UZF RECHARGE     =          11.1133
               GW ET     =           0.0000                 GW ET     =           0.0000
     SURFACE LEAKAGE     =           0.0000       SURFACE LEAKAGE     =           0.0000

                TOTAL IN =   263913456.0000                  TOTAL IN =          52.0721

          OUT:                                     OUT:
          ----                                     ----
             STORAGE     =    20308004.0000               STORAGE     =           9.0686
       CONSTANT HEAD     =           0.0000         CONSTANT HEAD     =           0.0000
               WELLS     =   105119992.0000                 WELLS     =          20.0000
     HEAD DEP BOUNDS     =     1476078.2500       HEAD DEP BOUNDS     =           0.2815
      STREAM LEAKAGE     =    36613356.0000        STREAM LEAKAGE     =           7.2905
        UZF RECHARGE     =           0.0000          UZF RECHARGE     =           0.0000
               GW ET     =   100396080.0000                 GW ET     =          15.4313
     SURFACE LEAKAGE     =           0.0000       SURFACE LEAKAGE     =           0.0000

               TOTAL OUT =   263913520.0000                 TOTAL OUT =          52.0719

                IN - OUT =         -64.0000                  IN - OUT =       1.6403E-04

     PERCENT DISCREPANCY =          -0.00         PERCENT DISCREPANCY =           0.00






         TIME SUMMARY AT END OF TIME STEP   15 IN STRESS PERIOD    2
                    SECONDS     MINUTES      HOURS       DAYS        YEARS
                    -----------------------------------------------------------
   TIME STEP LENGTH 3.14103E+05  5235.0      87.251      3.6354     9.95332E-03
 STRESS PERIOD TIME 2.62800E+06  43800.      730.00      30.417     8.32763E-02
         TOTAL TIME 5.25600E+06  87600.      1460.0      60.833     0.16655    
1
1
                            STRESS PERIOD NO.    3, LENGTH =   2628000.    
                            -----------------------------------------------

                              NUMBER OF TIME STEPS =    15

                               MULTIPLIER FOR DELT =     1.100

                            INITIAL TIME STEP SIZE =   82713.07    

 WELL NO.  LAYER   ROW   COL   STRESS RATE         
 --------------------------------------------------
      1      1      6      4      -1.000    
      2      1      6      5      -1.000    
      3      1      7      4      -1.000    
      4      1      7      5      -1.000    
      5      1      8      4      -1.000    
      6      1      8      5      -1.000    
      7      1      9      4      -1.000    
      8      1      9      5      -1.000    
      9      1     10      4      -1.000    
     10      1     10      5      -1.000    

     10 WELLS

 REUSING NON-PARAMETER GHB CELLS FROM LAST STRESS PERIOD

      2 GHB CELLS

 REUSING STREAM SEGMENT DATA FROM LAST STRESS PERIOD



            AREAL INFILTRATION RATE
 READING ON UNIT   19 WITH FORMAT: (10F4.0)            

            1           2           3           4           5           6           7           8           9          10
 ........................................................................................................................
   1   1.0000E-08  2.0000E-08   0.000       0.000       0.000       0.000       0.000       0.000       0.000       0.000    
   2   2.0000E-08  1.0000E-08  2.0000E-08   0.000       0.000      8.0000E-08  8.0000E-08  5.0000E-08   0.000       0.000    
   3    0.000      5.0000E-08  1.0000E-08  1.0000E-08  8.0000E-08  8.0000E-08  5.0000E-08  5.0000E-08   0.000       0.000    
   4   8.0000E-08  5.0000E-08  1.0000E-08  1.0000E-08  1.0000E-08  1.0000E-08  1.0000E-08  1.0000E-08  2.0000E-08   0.000    
   5   8.0000E-08  5.0000E-08  1.0000E-08  1.0000E-08  1.0000E-08  1.0000E-08  1.0000E-08  1.0000E-08  1.0000E-08  1.0000E-08
   6   8.0000E-08  5.0000E-08  5.0000E-08  2.0000E-08  2.0000E-08  1.0000E-08  1.0000E-08  1.0000E-08  1.0000E-08  5.0000E-08
   7   8.0000E-08  5.0000E-08  5.0000E-08  2.0000E-08  2.0000E-08  1.0000E-08  1.0000E-08  2.0000E-08  2.0000E-08   0.000    
   8    0.000      5.0000E-08  5.0000E-08  2.0000E-08  2.0000E-08  1.0000E-08  1.0000E-08  2.0000E-08  5.0000E-08   0.000    
   9    0.000      5.0000E-08  5.0000E-08  2.0000E-08  2.0000E-08  1.0000E-08  1.0000E-08  2.0000E-08  5.0000E-08   0.000    
  10    0.000      5.0000E-08  5.0000E-08  2.0000E-08  2.0000E-08  1.0000E-08  1.0000E-08  2.0000E-08  5.0000E-08  8.0000E-08
  11    0.000      1.0000E-08  1.0000E-08  1.0000E-08  1.0000E-08  1.0000E-08  1.0000E-08  2.0000E-08  5.0000E-08   0.000    
  12   1.0000E-08  1.0000E-08  1.0000E-08  1.0000E-08  1.0000E-08  1.0000E-08  1.0000E-08  1.0000E-08  2.0000E-08   0.000    
  13   1.0000E-08  1.0000E-08  2.0000E-08  2.0000E-08  2.0000E-08  2.0000E-08  2.0000E-08  1.0000E-08  1.0000E-08   0.000    
  14    0.000      2.0000E-08  5.0000E-08  5.0000E-08  5.0000E-08  5.0000E-08  5.0000E-08  2.0000E-08  1.0000E-08   0.000    
  15    0.000       0.000      8.0000E-08  8.0000E-08  8.0000E-08  8.0000E-08   0.000       0.000       0.000       0.000    

USING ET RATE FROM PREVIOUS STRESS PERIOD. CURRENT PERIOD IS:       3

 USING ET EXTINCTION DEPTH FROM PREVIOUS STRESS PERIOD. CURRENT PERIOD IS:       3

 USING EXTINCTION WATER CONTENT FROM PREVIOUS STRESS PERIOD. CURRENT PERIOD IS:       3
 
 SOLVING FOR HEAD 
                                                   Max.-Head-Change                         Max.-Flux-Residual
  Residual-Control   Outer-Iter.   Inner-Iter.     Column Row Layer    Maximum-Head-Change  Column Row Layer    Maximum-Flux-Residual          L2-NORM 
          0                 1           2             6    3     1       0.3588030929E-01       6    3    1         0.1015429349E+01      0.3651517475E+01
          0                 2           2             6    3     1       0.1233956873E-01       6    3    1         0.3494445256E+00      0.5347784632E+00
          0                 3           2             6    3     1       0.4243553901E-02       6    3    1         0.1201548063E+00      0.1595243482E+00
          0                 4           2             6    3     1       0.1459365300E-02       6    3    1         0.4132291808E-01      0.5465079264E-01
          0                 5           1             6    3     1       0.5018868300E-03       6    3    1         0.1421088031E-01      0.1894246373E-01
          0                 6           1             6    3     1       0.1726059917E-03       6    3    1         0.4887269290E-02      0.6575789073E-02
          0                 7           1             6    3     1       0.5936282543E-04       6    3    1         0.1680806623E-02      0.2285468319E-02

    ------------------------------------------------
       NWT REQUIRED            7 OUTER ITERATIONS 
       AND A TOTAL OF         11 INNER ITERATIONS.
    ------------------------------------------------

 OUTPUT CONTROL FOR STRESS PERIOD    3   TIME STEP    1
    PRINT BUDGET
    SAVE BUDGET

            WELLS   PERIOD    3   STEP   1
 WELL      1   LAYER   1   ROW     6   COL     4   RATE    -1.00000    
 WELL      2   LAYER   1   ROW     6   COL     5   RATE    -1.00000    
 WELL      3   LAYER   1   ROW     7   COL     4   RATE    -1.00000    
 WELL      4   LAYER   1   ROW     7   COL     5   RATE    -1.00000    
 WELL      5   LAYER   1   ROW     8   COL     4   RATE    -1.00000    
 WELL      6   LAYER   1   ROW     8   COL     5   RATE    -1.00000    
 WELL      7   LAYER   1   ROW     9   COL     4   RATE    -1.00000    
 WELL      8   LAYER   1   ROW     9   COL     5   RATE    -1.00000    
 WELL      9   LAYER   1   ROW    10   COL     4   RATE    -1.00000    
 WELL     10   LAYER   1   ROW    10   COL     5   RATE    -1.00000    

  HEAD DEP BOUNDS   PERIOD    3   STEP     1
 BOUNDARY      1   LAYER   1   ROW    13   COL     1   RATE   -0.281494    
 BOUNDARY      2   LAYER   1   ROW    14   COL     9   RATE    0.206269    



 STREAM LISTING     PERIOD      3   STEP        1

 LAYER ROW COL. STREAM  RCH.  FLOW INTO     FLOW TO   FLOW OUT OF   OVRLND.     DIRECT     STREAM       STREAM     STREAM     STREAM   STREAMBED  STREAMBED
                SEG.NO.  NO.  STRM. RCH.    AQUIFER    STRM. RCH.    RUNOFF     PRECIP       ET          HEAD       DEPTH      WIDTH   CONDCTNC.   GRADIENT

   1    1    1     1     1    2.5000E+01  1.1525E+00   2.3848E+01  0.000E+00  0.000E+00  0.000E+00  1.09422E+03  1.172E+00  1.295E+01  5.826E-01  6.594E-01
   1    2    2     1     2    2.3848E+01  2.6416E+00   2.1206E+01  0.000E+00  0.000E+00  0.000E+00  1.08920E+03  1.142E+00  1.256E+01  8.789E-01  1.002E+00
   1    3    3     1     3    2.1206E+01  2.9300E+00   1.8276E+01  0.000E+00  0.000E+00  0.000E+00  1.08351E+03  1.096E+00  1.192E+01  7.153E-01  1.365E+00
   1    3    4     1     4    1.8276E+01  2.4900E+00   1.5786E+01  0.000E+00  0.000E+00  0.000E+00  1.07846E+03  1.050E+00  1.108E+01  6.148E-01  1.350E+00
   1    4    5     2     1    5.7859E+00  2.6743E+00   3.1116E+00  0.000E+00  0.000E+00  0.000E+00  1.07236E+03  4.286E-01  1.200E+01  7.800E-01  1.143E+00
   1    5    6     2     2    3.1116E+00  1.9653E+00   1.1463E+00  0.000E+00  0.000E+00  0.000E+00  1.06678E+03  2.755E-01  1.200E+01  6.000E-01  1.092E+00
   1    6    6     2     3    1.1463E+00  1.1463E+00   0.0000E+00  0.000E+00  0.000E+00  0.000E+00  1.06184E+03  4.275E-02  1.200E+01  6.000E-01  1.014E+00
   1    7    6     2     4    0.0000E+00  0.0000E+00   0.0000E+00  0.000E+00  0.000E+00  0.000E+00  1.05708E+03  0.000E+00  1.200E+01  6.000E-01  1.000E+00
   1    8    6     2     5    0.0000E+00  0.0000E+00   0.0000E+00  0.000E+00  0.000E+00  0.000E+00  1.05236E+03  0.000E+00  1.200E+01  6.000E-01  1.000E+00
   1    3    5     3     1    1.0000E+01  1.6774E+00   8.3226E+00  0.000E+00  0.000E+00  0.000E+00  1.07555E+03  1.909E+00  9.636E+00  7.227E-01  1.160E+00
   1    3    6     3     2    8.3226E+00  1.6391E+00   6.6836E+00  0.000E+00  0.000E+00  0.000E+00  1.07264E+03  1.727E+00  8.909E+00  6.682E-01  1.227E+00
   1    3    7     3     3    6.6836E+00  1.2338E+00   5.4497E+00  0.000E+00  0.000E+00  0.000E+00  1.06987E+03  1.555E+00  8.218E+00  5.547E-01  1.112E+00
   1    4    8     3     4    5.4497E+00  1.5573E+00   3.8924E+00  0.000E+00  0.000E+00  0.000E+00  1.06682E+03  1.364E+00  7.455E+00  6.709E-01  1.161E+00
   1    5    8     3     5    3.8924E+00  1.5790E+00   2.3135E+00  0.000E+00  0.000E+00  0.000E+00  1.06362E+03  1.164E+00  6.655E+00  4.991E-01  1.582E+00
   1    6    8     3     6    2.3135E+00  5.5980E-01   1.7537E+00  0.000E+00  0.000E+00  0.000E+00  1.06158E+03  1.036E+00  6.145E+00  1.844E-01  1.518E+00
   1    5   10     4     1    1.0000E+01  9.0525E-01   9.0947E+00  0.000E+00  0.000E+00  0.000E+00  1.07835E+03  6.210E-01  1.000E+01  2.500E-01  1.207E+00
   1    5    9     4     2    9.0947E+00  1.7835E+00   7.3113E+00  0.000E+00  0.000E+00  0.000E+00  1.07148E+03  5.670E-01  1.000E+01  5.000E-01  1.189E+00
   1    6    8     4     3    7.3113E+00  1.2257E+00   6.0855E+00  0.000E+00  0.000E+00  0.000E+00  1.06368E+03  5.021E-01  1.000E+01  3.500E-01  1.167E+00
   1    6    8     5     1    7.8392E+00  3.6607E-01   7.4731E+00  0.000E+00  0.000E+00  0.000E+00  1.05861E+03  6.117E-01  1.289E+01  5.155E-01  2.367E-01
   1    7    7     5     2    7.4731E+00  1.3759E+00   6.0972E+00  0.000E+00  0.000E+00  0.000E+00  1.05409E+03  5.864E-01  1.199E+01  5.994E-01  7.652E-01
   1    8    7     5     3    6.0972E+00  1.0444E+00   5.0528E+00  0.000E+00  0.000E+00  0.000E+00  1.04980E+03  5.474E-01  1.065E+01  3.729E-01  9.336E-01
   1    8    6     5     4    5.0528E+00  8.3751E-01   4.2153E+00  0.000E+00  0.000E+00  0.000E+00  1.04676E+03  5.131E-01  9.536E+00  2.384E-01  1.171E+00
   1    9    6     6     1    4.2153E+00  2.0137E+00   2.2016E+00  0.000E+00  0.000E+00  0.000E+00  1.04308E+03  3.562E-01  1.200E+01  6.000E-01  1.119E+00
   1   10    7     6     2    2.2016E+00  1.2843E+00   9.1730E-01  0.000E+00  0.000E+00  0.000E+00  1.03841E+03  2.311E-01  1.200E+01  6.000E-01  7.135E-01
   1   11    7     6     3    9.1730E-01  9.1730E-01   0.0000E+00  0.000E+00  0.000E+00  0.000E+00  1.03367E+03  3.781E-02  1.200E+01  6.000E-01  8.955E-01
   1   12    7     6     4    0.0000E+00  0.0000E+00   0.0000E+00  0.000E+00  0.000E+00  0.000E+00  1.02909E+03  0.000E+00  1.200E+01  6.000E-01  6.627E-01
   1   13    7     6     5    0.0000E+00 -8.0490E-01   8.0490E-01  0.000E+00  0.000E+00  0.000E+00  1.02601E+03  1.025E-01  1.200E+01  2.400E-01 -1.118E+00
   1   14    9     7     1    1.5000E+02  1.6536E+00   1.4835E+02  0.000E+00  0.000E+00  0.000E+00  1.03987E+03  2.287E+00  5.529E+01  5.593E+00  9.856E-02
   1   13    8     7     2    1.4835E+02  1.7256E+00   1.4662E+02  0.000E+00  0.000E+00  0.000E+00  1.03478E+03  2.278E+00  5.525E+01  6.147E+00  9.358E-02
   1   13    7     7     3    1.4662E+02  1.8004E+00   1.4482E+02  0.000E+00  0.000E+00  0.000E+00  1.02969E+03  2.268E+00  5.521E+01  5.584E+00  1.075E-01
   1   13    6     8     1    1.4563E+02  5.2705E-01   1.4510E+02  0.000E+00  0.000E+00  0.000E+00  1.02466E+03  2.784E+00  4.037E+01  4.113E+00  4.271E-02
   1   13    5     8     2    1.4510E+02 -2.0225E-01   1.4530E+02  0.000E+00  0.000E+00  0.000E+00  1.01841E+03  2.783E+00  4.035E+01  4.112E+00 -1.640E-02
   1   13    4     8     3    1.4530E+02 -9.9902E-01   1.4630E+02  0.000E+00  0.000E+00  0.000E+00  1.01216E+03  2.787E+00  4.041E+01  4.118E+00 -8.087E-02
   1   13    3     8     4    1.4630E+02 -1.6422E+00   1.4794E+02  0.000E+00  0.000E+00  0.000E+00  1.00592E+03  2.796E+00  4.055E+01  4.132E+00 -1.325E-01
   1   13    2     8     5    1.4794E+02 -1.9076E+00   1.4985E+02  0.000E+00  0.000E+00  0.000E+00  9.99684E+02  2.809E+00  4.073E+01  4.151E+00 -1.532E-01
   1   13    1     8     6    1.4985E+02 -1.7781E+00   1.5163E+02  0.000E+00  0.000E+00  0.000E+00  9.94697E+02  2.822E+00  4.092E+01  2.502E+00 -2.369E-01



 UBDSV3 SAVING "           GW ET" ON UNIT  61 AT TIME STEP 1, STRESS PERIOD 3
 UBDSV3 SAVING "    UZF RECHARGE" ON UNIT  61 AT TIME STEP 1, STRESS PERIOD 3
 UBDSV3 SAVING " SURFACE LEAKAGE" ON UNIT  61 AT TIME STEP 1, STRESS PERIOD 3
 UBDSV3 SAVING "       HORT+DUNN" ON UNIT  61 AT TIME STEP 1, STRESS PERIOD 3
 UBDSV3 SAVING "  STORAGE CHANGE" ON UNIT  61 AT TIME STEP 1, STRESS PERIOD 3


UNSATURATED ZONE PACKAGE VOLUMETRIC BUDGET FOR  TIME STEP     1 STRESS PERIOD    3
  ------------------------------------------------------------------------------



     CUMULATIVE VOLUMES      L**3       RATES FOR THIS TIME STEP      L**3/T
     ------------------                 ------------------------

           IN:                                      IN:
           ---                                      ---
        INFILTRATION =   207460615.3359          INFILTRATION =          84.7500

          OUT:                                     OUT:
          ----                                     ----
              UZF ET =   330426512.8848                UZF ET =         121.7043
        UZF RECHARGE =    47873519.3296          UZF RECHARGE =          14.2874

            IN - OUT =  -170839416.8784              IN - OUT =         -51.2417

          STORAGE:                                 STORAGE:
          --------                                 --------
      STORAGE CHANGE =  -170800429.5119        STORAGE CHANGE =         -51.2246

 PERCENT DISCREPANCY IS DIFFERENCE BETWEEN IN-OUT MINUS CHANGE IN STORAGE
 DIVIDED BY THE AVERAGE OF IN AND OUT TIMES 100

 PERCENT DISCREPANCY =          -0.00     PERCENT DISCREPANCY =          -0.01






1
  VOLUMETRIC BUDGET FOR ENTIRE MODEL AT END OF TIME STEP    1, STRESS PERIOD   3
  ------------------------------------------------------------------------------

     CUMULATIVE VOLUMES      L**3       RATES FOR THIS TIME STEP      L**3/T
     ------------------                 ------------------------

           IN:                                      IN:
           ---                                      ---
             STORAGE     =      123983.3438               STORAGE     =       4.3256E-02
       CONSTANT HEAD     =           0.0000         CONSTANT HEAD     =           0.0000
               WELLS     =           0.0000                 WELLS     =           0.0000
     HEAD DEP BOUNDS     =     1105911.5000       HEAD DEP BOUNDS     =           0.2063
      STREAM LEAKAGE     =   219379408.0000        STREAM LEAKAGE     =          40.7067
        UZF RECHARGE     =    47873536.0000          UZF RECHARGE     =          14.2874
               GW ET     =           0.0000                 GW ET     =           0.0000
     SURFACE LEAKAGE     =           0.0000       SURFACE LEAKAGE     =           0.0000

                TOTAL IN =   268482816.0000                  TOTAL IN =          55.2436

          OUT:                                     OUT:
          ----                                     ----
             STORAGE     =    22140516.0000               STORAGE     =          22.1550
       CONSTANT HEAD     =           0.0000         CONSTANT HEAD     =           0.0000
               WELLS     =   105947120.0000                 WELLS     =          10.0000
     HEAD DEP BOUNDS     =     1499361.5000       HEAD DEP BOUNDS     =           0.2815
      STREAM LEAKAGE     =    37219972.0000        STREAM LEAKAGE     =           7.3340
        UZF RECHARGE     =           0.0000          UZF RECHARGE     =           0.0000
               GW ET     =   101675816.0000                 GW ET     =          15.4720
     SURFACE LEAKAGE     =           0.0000       SURFACE LEAKAGE     =           0.0000

               TOTAL OUT =   268482784.0000                 TOTAL OUT =          55.2425

                IN - OUT =          32.0000                  IN - OUT =       1.1063E-03

     PERCENT DISCREPANCY =           0.00         PERCENT DISCREPANCY =           0.00






         TIME SUMMARY AT END OF TIME STEP    1 IN STRESS PERIOD    3
                    SECONDS     MINUTES      HOURS       DAYS        YEARS
                    -----------------------------------------------------------
   TIME STEP LENGTH  82713.      1378.6      22.976     0.95733     2.62102E-03
 STRESS PERIOD TIME  82713.      1378.6      22.976     0.95733     2.62102E-03
         TOTAL TIME 5.33871E+06  88979.      1483.0      61.791     0.16917    
1
 
 SOLVING FOR HEAD 
                                                   Max.-Head-Change                         Max.-Flux-Residual
  Residual-Control   Outer-Iter.   Inner-Iter.     Column Row Layer    Maximum-Head-Change  Column Row Layer    Maximum-Flux-Residual          L2-NORM 
          0                 1           2             6    3     1       0.3752995313E-01       5    9    1         0.1011064000E+01      0.3634974611E+01
          0                 2           2             6    3     1       0.1289153036E-01       6    3    1         0.3328737794E+00      0.5184220758E+00
          0                 3           2             6    3     1       0.4428091956E-02       6    3    1         0.1143088843E+00      0.1532679162E+00
          0                 4           2             6    3     1       0.1521029467E-02       6    3    1         0.3926679201E-01      0.5260352611E-01
          0                 5           1             6    3     1       0.5224818990E-03       6    3    1         0.1348775160E-01      0.1829159058E-01
          0                 6           1             6    3     1       0.1794810861E-03       6    3    1         0.4633177508E-02      0.6373551014E-02
          0                 7           1             6    3     1       0.6165674537E-04       6    3    1         0.1591581038E-02      0.2225091933E-02

    ------------------------------------------------
       NWT REQUIRED            7 OUTER ITERATIONS 
       AND A TOTAL OF         11 INNER ITERATIONS.
    ------------------------------------------------

 NO OUTPUT CONTROL FOR STRESS PERIOD    3   TIME STEP    2
 
 SOLVING FOR HEAD 
                                                   Max.-Head-Change                         Max.-Flux-Residual
  Residual-Control   Outer-Iter.   Inner-Iter.     Column Row Layer    Maximum-Head-Change  Column Row Layer    Maximum-Flux-Residual          L2-NORM 
          0                 1           2             6    3     1       0.3899857324E-01       5    9    1         0.1008103653E+01      0.3618455057E+01
          0                 2           2             6    3     1       0.1337854621E-01       6    3    1         0.3150520755E+00      0.5001230900E+00
          0                 3           2             6    3     1       0.4589325610E-02       6    3    1         0.1080430540E+00      0.1454042796E+00
          0                 4           2             6    3     1       0.1574332322E-02       6    3    1         0.3706587065E-01      0.4968547230E-01
          0                 5           1             6    3     1       0.5400774407E-03       6    3    1         0.1271491147E-01      0.1722414429E-01
          0                 6           1             6    3     1       0.1852802365E-03       6    3    1         0.4361933452E-02      0.5984125818E-02
          0                 7           1             6    3     1       0.6356473647E-04       6    3    1         0.1496422659E-02      0.2083518909E-02

    ------------------------------------------------
       NWT REQUIRED            7 OUTER ITERATIONS 
       AND A TOTAL OF         11 INNER ITERATIONS.
    ------------------------------------------------

 NO OUTPUT CONTROL FOR STRESS PERIOD    3   TIME STEP    3
 
 SOLVING FOR HEAD 
                                                   Max.-Head-Change                         Max.-Flux-Residual
  Residual-Control   Outer-Iter.   Inner-Iter.     Column Row Layer    Maximum-Head-Change  Column Row Layer    Maximum-Flux-Residual          L2-NORM 
          0                 1           2             6    3     1       0.4043419712E-01       5    9    1         0.1004917950E+01      0.3595930872E+01
          0                 2           2             6    3     1       0.1383425872E-01       6    3    1         0.2972080664E+00      0.4785030816E+00
          0                 3           2             6    3     1       0.4732980841E-02       6    3    1         0.1016500809E+00      0.1364043226E+00
          0                 4           2             6    3     1       0.1619270231E-02       6    3    1         0.3477971526E-01      0.4636069326E-01
          0                 5           1             6    3     1       0.5540067072E-03       6    3    1         0.1189874275E-01      0.1600272313E-01
          0                 6           1             6    3     1       0.1895498191E-03       6    3    1         0.4071016904E-02      0.5535651311E-02
          0                 7           1             6    3     1       0.6485524043E-04       6    3    1         0.1392878387E-02      0.1919157946E-02

    ------------------------------------------------
       NWT REQUIRED            7 OUTER ITERATIONS 
       AND A TOTAL OF         11 INNER ITERATIONS.
    ------------------------------------------------

 NO OUTPUT CONTROL FOR STRESS PERIOD    3   TIME STEP    4
 
 SOLVING FOR HEAD 
                                                   Max.-Head-Change                         Max.-Flux-Residual
  Residual-Control   Outer-Iter.   Inner-Iter.     Column Row Layer    Maximum-Head-Change  Column Row Layer    Maximum-Flux-Residual          L2-NORM 
          0                 1           2             6    3     1       0.4209668542E-01       5    9    1         0.1001458365E+01      0.3576213529E+01
          0                 2           2             6    3     1       0.1442498929E-01       6    3    1         0.2828123298E+00      0.4600540791E+00
          0                 3           2             6    3     1       0.4942515814E-02       6    3    1         0.9687149541E-01      0.1293738684E+00
          0                 4           2             6    3     1       0.1693505983E-02       6    3    1         0.3319471962E-01      0.4401692249E-01
          0                 5           1             6    3     1       0.5802805389E-03       6    3    1         0.1137360169E-01      0.1522522389E-01
          0                 6           1             6    3     1       0.1988400247E-03       6    3    1         0.3897228804E-02      0.5277731753E-02
          0                 7           1             6    3     1       0.6813731284E-04       6    3    1         0.1335439008E-02      0.1833541045E-02

    ------------------------------------------------
       NWT REQUIRED            7 OUTER ITERATIONS 
       AND A TOTAL OF         11 INNER ITERATIONS.
    ------------------------------------------------

 OUTPUT CONTROL FOR STRESS PERIOD    3   TIME STEP    5
    PRINT BUDGET
    SAVE BUDGET

            WELLS   PERIOD    3   STEP   5
 WELL      1   LAYER   1   ROW     6   COL     4   RATE    -1.00000    
 WELL      2   LAYER   1   ROW     6   COL     5   RATE    -1.00000    
 WELL      3   LAYER   1   ROW     7   COL     4   RATE    -1.00000    
 WELL      4   LAYER   1   ROW     7   COL     5   RATE    -1.00000    
 WELL      5   LAYER   1   ROW     8   COL     4   RATE    -1.00000    
 WELL      6   LAYER   1   ROW     8   COL     5   RATE    -1.00000    
 WELL      7   LAYER   1   ROW     9   COL     4   RATE    -1.00000    
 WELL      8   LAYER   1   ROW     9   COL     5   RATE    -1.00000    
 WELL      9   LAYER   1   ROW    10   COL     4   RATE    -1.00000    
 WELL     10   LAYER   1   ROW    10   COL     5   RATE    -1.00000    

  HEAD DEP BOUNDS   PERIOD    3   STEP     5
 BOUNDARY      1   LAYER   1   ROW    13   COL     1   RATE   -0.281552    
 BOUNDARY      2   LAYER   1   ROW    14   COL     9   RATE    0.206251    



 STREAM LISTING     PERIOD      3   STEP        5

 LAYER ROW COL. STREAM  RCH.  FLOW INTO     FLOW TO   FLOW OUT OF   OVRLND.     DIRECT     STREAM       STREAM     STREAM     STREAM   STREAMBED  STREAMBED
                SEG.NO.  NO.  STRM. RCH.    AQUIFER    STRM. RCH.    RUNOFF     PRECIP       ET          HEAD       DEPTH      WIDTH   CONDCTNC.   GRADIENT

   1    1    1     1     1    2.5000E+01  1.1474E+00   2.3853E+01  0.000E+00  0.000E+00  0.000E+00  1.09422E+03  1.172E+00  1.295E+01  5.826E-01  6.564E-01
   1    2    2     1     2    2.3853E+01  2.6318E+00   2.1221E+01  0.000E+00  0.000E+00  0.000E+00  1.08920E+03  1.142E+00  1.256E+01  8.790E-01  9.980E-01
   1    3    3     1     3    2.1221E+01  2.9312E+00   1.8290E+01  0.000E+00  0.000E+00  0.000E+00  1.08351E+03  1.096E+00  1.193E+01  7.156E-01  1.365E+00
   1    3    4     1     4    1.8290E+01  2.4911E+00   1.5798E+01  0.000E+00  0.000E+00  0.000E+00  1.07846E+03  1.050E+00  1.108E+01  6.151E-01  1.350E+00
   1    4    5     2     1    5.7985E+00  2.6749E+00   3.1236E+00  0.000E+00  0.000E+00  0.000E+00  1.07236E+03  4.293E-01  1.200E+01  7.800E-01  1.143E+00
   1    5    6     2     2    3.1236E+00  1.9658E+00   1.1578E+00  0.000E+00  0.000E+00  0.000E+00  1.06679E+03  2.764E-01  1.200E+01  6.000E-01  1.092E+00
   1    6    6     2     3    1.1578E+00  1.1578E+00   0.0000E+00  0.000E+00  0.000E+00  0.000E+00  1.06184E+03  4.300E-02  1.200E+01  6.000E-01  1.014E+00
   1    7    6     2     4    0.0000E+00  0.0000E+00   0.0000E+00  0.000E+00  0.000E+00  0.000E+00  1.05708E+03  0.000E+00  1.200E+01  6.000E-01  1.000E+00
   1    8    6     2     5    0.0000E+00  0.0000E+00   0.0000E+00  0.000E+00  0.000E+00  0.000E+00  1.05236E+03  0.000E+00  1.200E+01  6.000E-01  1.000E+00
   1    3    5     3     1    1.0000E+01  1.5350E+00   8.4650E+00  0.000E+00  0.000E+00  0.000E+00  1.07555E+03  1.909E+00  9.636E+00  7.227E-01  1.062E+00
   1    3    6     3     2    8.4650E+00  1.4775E+00   6.9876E+00  0.000E+00  0.000E+00  0.000E+00  1.07264E+03  1.727E+00  8.909E+00  6.682E-01  1.106E+00
   1    3    7     3     3    6.9876E+00  1.2291E+00   5.7585E+00  0.000E+00  0.000E+00  0.000E+00  1.06987E+03  1.555E+00  8.218E+00  5.547E-01  1.108E+00
   1    4    8     3     4    5.7585E+00  1.5480E+00   4.2105E+00  0.000E+00  0.000E+00  0.000E+00  1.06682E+03  1.364E+00  7.455E+00  6.709E-01  1.154E+00
   1    5    8     3     5    4.2105E+00  1.5771E+00   2.6334E+00  0.000E+00  0.000E+00  0.000E+00  1.06362E+03  1.164E+00  6.655E+00  4.991E-01  1.580E+00
   1    6    8     3     6    2.6334E+00  5.5980E-01   2.0736E+00  0.000E+00  0.000E+00  0.000E+00  1.06158E+03  1.036E+00  6.145E+00  1.844E-01  1.518E+00
   1    5   10     4     1    1.0000E+01  9.0525E-01   9.0947E+00  0.000E+00  0.000E+00  0.000E+00  1.07835E+03  6.210E-01  1.000E+01  2.500E-01  1.207E+00
   1    5    9     4     2    9.0947E+00  1.7835E+00   7.3113E+00  0.000E+00  0.000E+00  0.000E+00  1.07148E+03  5.670E-01  1.000E+01  5.000E-01  1.189E+00
   1    6    8     4     3    7.3113E+00  1.2257E+00   6.0855E+00  0.000E+00  0.000E+00  0.000E+00  1.06368E+03  5.021E-01  1.000E+01  3.500E-01  1.167E+00
   1    6    8     5     1    8.1591E+00  3.7111E-01   7.7880E+00  0.000E+00  0.000E+00  0.000E+00  1.05862E+03  6.204E-01  1.321E+01  5.282E-01  2.342E-01
   1    7    7     5     2    7.7880E+00  1.4068E+00   6.3812E+00  0.000E+00  0.000E+00  0.000E+00  1.05410E+03  5.953E-01  1.230E+01  6.151E-01  7.624E-01
   1    8    7     5     3    6.3812E+00  1.0737E+00   5.3075E+00  0.000E+00  0.000E+00  0.000E+00  1.04981E+03  5.565E-01  1.096E+01  3.836E-01  9.330E-01
   1    8    6     5     4    5.3075E+00  8.6559E-01   4.4419E+00  0.000E+00  0.000E+00  0.000E+00  1.04677E+03  5.223E-01  9.830E+00  2.457E-01  1.174E+00
   1    9    6     6     1    4.4419E+00  2.0225E+00   2.4194E+00  0.000E+00  0.000E+00  0.000E+00  1.04310E+03  3.708E-01  1.200E+01  6.000E-01  1.124E+00
   1   10    7     6     2    2.4194E+00  1.2839E+00   1.1354E+00  0.000E+00  0.000E+00  0.000E+00  1.03843E+03  2.499E-01  1.200E+01  6.000E-01  7.133E-01
   1   11    7     6     3    1.1354E+00  1.1354E+00   0.0000E+00  0.000E+00  0.000E+00  0.000E+00  1.03368E+03  4.298E-02  1.200E+01  6.000E-01  8.683E-01
   1   12    7     6     4    0.0000E+00  0.0000E+00   0.0000E+00  0.000E+00  0.000E+00  0.000E+00  1.02909E+03  0.000E+00  1.200E+01  6.000E-01  6.556E-01
   1   13    7     6     5    0.0000E+00 -8.0499E-01   8.0499E-01  0.000E+00  0.000E+00  0.000E+00  1.02601E+03  1.025E-01  1.200E+01  2.400E-01 -1.118E+00
   1   14    9     7     1    1.5000E+02  1.6510E+00   1.4835E+02  0.000E+00  0.000E+00  0.000E+00  1.03987E+03  2.287E+00  5.529E+01  5.593E+00  9.840E-02
   1   13    8     7     2    1.4835E+02  1.7222E+00   1.4663E+02  0.000E+00  0.000E+00  0.000E+00  1.03478E+03  2.278E+00  5.525E+01  6.147E+00  9.339E-02
   1   13    7     7     3    1.4663E+02  1.7986E+00   1.4483E+02  0.000E+00  0.000E+00  0.000E+00  1.02969E+03  2.269E+00  5.521E+01  5.584E+00  1.074E-01
   1   13    6     8     1    1.4563E+02  5.2323E-01   1.4511E+02  0.000E+00  0.000E+00  0.000E+00  1.02466E+03  2.784E+00  4.037E+01  4.114E+00  4.240E-02
   1   13    5     8     2    1.4511E+02 -2.8127E-01   1.4539E+02  0.000E+00  0.000E+00  0.000E+00  1.01841E+03  2.783E+00  4.035E+01  4.112E+00 -2.280E-02
   1   13    4     8     3    1.4539E+02 -1.0875E+00   1.4648E+02  0.000E+00  0.000E+00  0.000E+00  1.01216E+03  2.788E+00  4.043E+01  4.120E+00 -8.799E-02
   1   13    3     8     4    1.4648E+02 -1.7382E+00   1.4822E+02  0.000E+00  0.000E+00  0.000E+00  1.00592E+03  2.798E+00  4.057E+01  4.134E+00 -1.401E-01
   1   13    2     8     5    1.4822E+02 -1.9087E+00   1.5013E+02  0.000E+00  0.000E+00  0.000E+00  9.99686E+02  2.811E+00  4.076E+01  4.154E+00 -1.532E-01
   1   13    1     8     6    1.5013E+02 -1.7783E+00   1.5190E+02  0.000E+00  0.000E+00  0.000E+00  9.94699E+02  2.824E+00  4.095E+01  2.504E+00 -2.368E-01



 UBDSV3 SAVING "           GW ET" ON UNIT  61 AT TIME STEP 5, STRESS PERIOD 3
 UBDSV3 SAVING "    UZF RECHARGE" ON UNIT  61 AT TIME STEP 5, STRESS PERIOD 3
 UBDSV3 SAVING " SURFACE LEAKAGE" ON UNIT  61 AT TIME STEP 5, STRESS PERIOD 3
 UBDSV3 SAVING "       HORT+DUNN" ON UNIT  61 AT TIME STEP 5, STRESS PERIOD 3
 UBDSV3 SAVING "  STORAGE CHANGE" ON UNIT  61 AT TIME STEP 5, STRESS PERIOD 3


UNSATURATED ZONE PACKAGE VOLUMETRIC BUDGET FOR  TIME STEP     5 STRESS PERIOD    3
  ------------------------------------------------------------------------------



     CUMULATIVE VOLUMES      L**3       RATES FOR THIS TIME STEP      L**3/T
     ------------------                 ------------------------

           IN:                                      IN:
           ---                                      ---
        INFILTRATION =   243247024.4336          INFILTRATION =          84.7500

          OUT:                                     OUT:
          ----                                     ----
              UZF ET =   381796505.3647                UZF ET =         121.6269
        UZF RECHARGE =    53964617.7705          UZF RECHARGE =          14.3260

            IN - OUT =  -192514098.7016              IN - OUT =         -51.2029

          STORAGE:                                 STORAGE:
          --------                                 --------
      STORAGE CHANGE =  -192466236.8007        STORAGE CHANGE =         -51.1800

 PERCENT DISCREPANCY IS DIFFERENCE BETWEEN IN-OUT MINUS CHANGE IN STORAGE
 DIVIDED BY THE AVERAGE OF IN AND OUT TIMES 100

 PERCENT DISCREPANCY =          -0.00     PERCENT DISCREPANCY =          -0.02






1
  VOLUMETRIC BUDGET FOR ENTIRE MODEL AT END OF TIME STEP    5, STRESS PERIOD   3
  ------------------------------------------------------------------------------

     CUMULATIVE VOLUMES      L**3       RATES FOR THIS TIME STEP      L**3/T
     ------------------                 ------------------------

           IN:                                      IN:
           ---                                      ---
             STORAGE     =      141176.0781               STORAGE     =       3.9129E-02
       CONSTANT HEAD     =           0.0000         CONSTANT HEAD     =           0.0000
               WELLS     =           0.0000                 WELLS     =           0.0000
     HEAD DEP BOUNDS     =     1193005.0000       HEAD DEP BOUNDS     =           0.2063
      STREAM LEAKAGE     =   236564928.0000        STREAM LEAKAGE     =          40.6949
        UZF RECHARGE     =    53964632.0000          UZF RECHARGE     =          14.3260
               GW ET     =           0.0000                 GW ET     =           0.0000
     SURFACE LEAKAGE     =           0.0000       SURFACE LEAKAGE     =           0.0000

                TOTAL IN =   291863744.0000                  TOTAL IN =          55.2663

          OUT:                                     OUT:
          ----                                     ----
             STORAGE     =    31452336.0000               STORAGE     =          21.8213
       CONSTANT HEAD     =           0.0000         CONSTANT HEAD     =           0.0000
               WELLS     =   110169704.0000                 WELLS     =          10.0000
     HEAD DEP BOUNDS     =     1618240.1250       HEAD DEP BOUNDS     =           0.2816
      STREAM LEAKAGE     =    40389416.0000        STREAM LEAKAGE     =           7.5989
        UZF RECHARGE     =           0.0000          UZF RECHARGE     =           0.0000
               GW ET     =   108233592.0000                 GW ET     =          15.5637
     SURFACE LEAKAGE     =           0.0000       SURFACE LEAKAGE     =           0.0000

               TOTAL OUT =   291863296.0000                 TOTAL OUT =          55.2655

                IN - OUT =         448.0000                  IN - OUT =       8.8501E-04

     PERCENT DISCREPANCY =           0.00         PERCENT DISCREPANCY =           0.00






         TIME SUMMARY AT END OF TIME STEP    5 IN STRESS PERIOD    3
                    SECONDS     MINUTES      HOURS       DAYS        YEARS
                    -----------------------------------------------------------
   TIME STEP LENGTH 1.21100E+05  2018.3      33.639      1.4016     3.83743E-03
 STRESS PERIOD TIME 5.04972E+05  8416.2      140.27      5.8446     1.60016E-02
         TOTAL TIME 5.76097E+06  96016.      1600.3      66.678     0.18255    
1
 
 SOLVING FOR HEAD 
                                                   Max.-Head-Change                         Max.-Flux-Residual
  Residual-Control   Outer-Iter.   Inner-Iter.     Column Row Layer    Maximum-Head-Change  Column Row Layer    Maximum-Flux-Residual          L2-NORM 
          0                 1           2             6    3     1       0.4289850742E-01       5    9    1         0.9976854883E+00      0.3556757466E+01
          0                 2           2             6    3     1       0.1465110072E-01       6    3    1         0.2622311857E+00      0.4382854995E+00
          0                 3           2             6    3     1       0.5023877070E-02       6    3    1         0.8989101155E-01      0.1202035953E+00
          0                 4           2             6    3     1       0.1722691534E-02       6    3    1         0.3082663224E-01      0.4069478945E-01
          0                 5           1             6    3     1       0.5907226778E-03       6    3    1         0.1057019384E-01      0.1403013038E-01
          0                 6           1             6    3     1       0.2025673918E-03       6    3    1         0.3624639547E-02      0.4847150932E-02
          0                 7           1             6    3     1       0.6946499530E-04       6    3    1         0.1242945066E-02      0.1678145439E-02

    ------------------------------------------------
       NWT REQUIRED            7 OUTER ITERATIONS 
       AND A TOTAL OF         11 INNER ITERATIONS.
    ------------------------------------------------

 NO OUTPUT CONTROL FOR STRESS PERIOD    3   TIME STEP    6
 
 SOLVING FOR HEAD 
                                                   Max.-Head-Change                         Max.-Flux-Residual
  Residual-Control   Outer-Iter.   Inner-Iter.     Column Row Layer    Maximum-Head-Change  Column Row Layer    Maximum-Flux-Residual          L2-NORM 
          0                 1           2             6    3     1       0.4382683022E-01       7   11    1         0.1045634667E+01      0.3544205306E+01
          0                 2           2             6    3     1       0.1489014512E-01       6    3    1         0.2433143529E+00      0.4210799442E+00
          0                 3           2             6    3     1       0.5057881383E-02       6    3    1         0.8262708854E-01      0.1120590944E+00
          0                 4           2             6    3     1       0.1717945783E-02       6    3    1         0.2806901898E-01      0.3753669750E-01
          0                 5           1             6    3     1       0.5834966428E-03       6    3    1         0.9533439944E-02      0.1285005148E-01
          0                 6           1             6    3     1       0.1981820789E-03       6    3    1         0.3238027995E-02      0.4413447583E-02
          0                 7           1             6    3     1       0.6731216799E-04       6    3    1         0.1099778466E-02      0.1520427069E-02

    ------------------------------------------------
       NWT REQUIRED            7 OUTER ITERATIONS 
       AND A TOTAL OF         11 INNER ITERATIONS.
    ------------------------------------------------

 NO OUTPUT CONTROL FOR STRESS PERIOD    3   TIME STEP    7
 
 SOLVING FOR HEAD 
                                                   Max.-Head-Change                         Max.-Flux-Residual
  Residual-Control   Outer-Iter.   Inner-Iter.     Column Row Layer    Maximum-Head-Change  Column Row Layer    Maximum-Flux-Residual          L2-NORM 
          0                 1           2             5    3     1       0.5973603896E-01       7   11    1         0.1099845425E+01      0.3651527880E+01
          0                 2           2             5    3     1       0.2284677891E-01       5    3    1         0.3420879853E+00      0.5220133389E+00
          0                 3           2             5    3     1       0.8734507206E-02       5    3    1         0.1307758935E+00      0.1609991493E+00
          0                 4           2             5    3     1       0.3338754478E-02       5    3    1         0.4999740860E-01      0.5810150834E-01
          0                 5           1             5    3     1       0.1276073041E-02       5    3    1         0.1911063680E-01      0.2145515218E-01
          0                 6           1             5    3     1       0.4876625005E-03       5    3    1         0.7303933085E-02      0.8000547001E-02
          0                 7           1             5    3     1       0.1863469328E-03       5    3    1         0.2791198891E-02      0.3002625956E-02
          0                 8           1             5    3     1       0.7120152778E-04       5    3    1         0.1066560641E-02      0.1133645258E-02

    ------------------------------------------------
       NWT REQUIRED            8 OUTER ITERATIONS 
       AND A TOTAL OF         12 INNER ITERATIONS.
    ------------------------------------------------

 NO OUTPUT CONTROL FOR STRESS PERIOD    3   TIME STEP    8
 
 SOLVING FOR HEAD 
                                                   Max.-Head-Change                         Max.-Flux-Residual
  Residual-Control   Outer-Iter.   Inner-Iter.     Column Row Layer    Maximum-Head-Change  Column Row Layer    Maximum-Flux-Residual          L2-NORM 
          0                 1           2             6    3     1       0.6429080459E-01       7   11    1         0.1185964272E+01      0.3686508312E+01
          0                 2           2             6    3     1       0.2397372365E-01       6    3    1         0.3269299721E+00      0.5505789296E+00
          0                 3           2             6    3     1       0.8935311628E-02       6    3    1         0.1218495109E+00      0.1769326796E+00
          0                 4           2             6    3     1       0.3329448557E-02       6    3    1         0.4541519416E-01      0.6491946355E-01
          0                 5           2             6    3     1       0.1240411794E-02       6    3    1         0.1692129828E-01      0.2416277926E-01
          0                 6           1             6    3     1       0.4620792231E-03       5    3    1         0.6317340045E-02      0.9030435852E-02
          0                 7           1             5    3     1       0.1744012262E-03       5    3    1         0.2386204944E-02      0.3381997911E-02
          0                 8           1             5    3     1       0.6587145935E-04       5    3    1         0.9012948172E-03      0.1269012990E-02

    ------------------------------------------------
       NWT REQUIRED            8 OUTER ITERATIONS 
       AND A TOTAL OF         13 INNER ITERATIONS.
    ------------------------------------------------

 NO OUTPUT CONTROL FOR STRESS PERIOD    3   TIME STEP    9
 
 SOLVING FOR HEAD 
                                                   Max.-Head-Change                         Max.-Flux-Residual
  Residual-Control   Outer-Iter.   Inner-Iter.     Column Row Layer    Maximum-Head-Change  Column Row Layer    Maximum-Flux-Residual          L2-NORM 
          0                 1           2             6    3     1       0.7264014887E-01       7   11    1         0.1285410016E+01      0.3697221849E+01
          0                 2           2             6    3     1       0.2690656544E-01       6    3    1         0.3356799854E+00      0.5359298054E+00
          0                 3           2             6    3     1       0.9961449595E-02       6    3    1         0.1242705374E+00      0.1694018561E+00
          0                 4           2             6    3     1       0.3687032710E-02       6    3    1         0.4600876441E-01      0.6177587553E-01
          0                 5           2             6    3     1       0.1364474033E-02       6    3    1         0.1702801577E-01      0.2285959157E-01
          0                 6           1             6    3     1       0.5049096811E-03       6    3    1         0.6301488630E-02      0.8494148733E-02
          0                 7           1             6    3     1       0.1868270670E-03       6    3    1         0.2331757661E-02      0.3163054336E-02
          0                 8           1             6    3     1       0.6912826055E-04       6    3    1         0.8627912497E-03      0.1179974299E-02

    ------------------------------------------------
       NWT REQUIRED            8 OUTER ITERATIONS 
       AND A TOTAL OF         13 INNER ITERATIONS.
    ------------------------------------------------

 OUTPUT CONTROL FOR STRESS PERIOD    3   TIME STEP   10
    PRINT BUDGET
    SAVE BUDGET

            WELLS   PERIOD    3   STEP  10
 WELL      1   LAYER   1   ROW     6   COL     4   RATE    -1.00000    
 WELL      2   LAYER   1   ROW     6   COL     5   RATE    -1.00000    
 WELL      3   LAYER   1   ROW     7   COL     4   RATE    -1.00000    
 WELL      4   LAYER   1   ROW     7   COL     5   RATE    -1.00000    
 WELL      5   LAYER   1   ROW     8   COL     4   RATE    -1.00000    
 WELL      6   LAYER   1   ROW     8   COL     5   RATE    -1.00000    
 WELL      7   LAYER   1   ROW     9   COL     4   RATE    -1.00000    
 WELL      8   LAYER   1   ROW     9   COL     5   RATE    -1.00000    
 WELL      9   LAYER   1   ROW    10   COL     4   RATE    -1.00000    
 WELL     10   LAYER   1   ROW    10   COL     5   RATE    -1.00000    

  HEAD DEP BOUNDS   PERIOD    3   STEP    10
 BOUNDARY      1   LAYER   1   ROW    13   COL     1   RATE   -0.281648    
 BOUNDARY      2   LAYER   1   ROW    14   COL     9   RATE    0.206235    



 STREAM LISTING     PERIOD      3   STEP       10

 LAYER ROW COL. STREAM  RCH.  FLOW INTO     FLOW TO   FLOW OUT OF   OVRLND.     DIRECT     STREAM       STREAM     STREAM     STREAM   STREAMBED  STREAMBED
                SEG.NO.  NO.  STRM. RCH.    AQUIFER    STRM. RCH.    RUNOFF     PRECIP       ET          HEAD       DEPTH      WIDTH   CONDCTNC.   GRADIENT

   1    1    1     1     1    2.5000E+01  1.1389E+00   2.3861E+01  0.000E+00  0.000E+00  0.000E+00  1.09422E+03  1.172E+00  1.295E+01  5.827E-01  6.515E-01
   1    2    2     1     2    2.3861E+01  2.6158E+00   2.1245E+01  0.000E+00  0.000E+00  0.000E+00  1.08920E+03  1.142E+00  1.256E+01  8.793E-01  9.917E-01
   1    3    3     1     3    2.1245E+01  2.9332E+00   1.8312E+01  0.000E+00  0.000E+00  0.000E+00  1.08352E+03  1.096E+00  1.193E+01  7.160E-01  1.365E+00
   1    3    4     1     4    1.8312E+01  2.4929E+00   1.5819E+01  0.000E+00  0.000E+00  0.000E+00  1.07846E+03  1.051E+00  1.109E+01  6.154E-01  1.350E+00
   1    4    5     2     1    5.8191E+00  2.6758E+00   3.1433E+00  0.000E+00  0.000E+00  0.000E+00  1.07236E+03  4.305E-01  1.200E+01  7.800E-01  1.144E+00
   1    5    6     2     2    3.1433E+00  1.9667E+00   1.1766E+00  0.000E+00  0.000E+00  0.000E+00  1.06679E+03  2.779E-01  1.200E+01  6.000E-01  1.093E+00
   1    6    6     2     3    1.1766E+00  1.1766E+00   0.0000E+00  0.000E+00  0.000E+00  0.000E+00  1.06184E+03  4.342E-02  1.200E+01  6.000E-01  1.014E+00
   1    7    6     2     4    0.0000E+00  0.0000E+00   0.0000E+00  0.000E+00  0.000E+00  0.000E+00  1.05708E+03  0.000E+00  1.200E+01  6.000E-01  1.000E+00
   1    8    6     2     5    0.0000E+00  0.0000E+00   0.0000E+00  0.000E+00  0.000E+00  0.000E+00  1.05236E+03  0.000E+00  1.200E+01  6.000E-01  1.000E+00
   1    3    5     3     1    1.0000E+01  1.2515E+00   8.7485E+00  0.000E+00  0.000E+00  0.000E+00  1.07555E+03  1.909E+00  9.636E+00  7.227E-01  8.658E-01
   1    3    6     3     2    8.7485E+00  1.1992E+00   7.5493E+00  0.000E+00  0.000E+00  0.000E+00  1.07264E+03  1.727E+00  8.909E+00  6.682E-01  8.973E-01
   1    3    7     3     3    7.5493E+00  1.1212E+00   6.4281E+00  0.000E+00  0.000E+00  0.000E+00  1.06987E+03  1.555E+00  8.218E+00  5.547E-01  1.011E+00
   1    4    8     3     4    6.4281E+00  1.5337E+00   4.8945E+00  0.000E+00  0.000E+00  0.000E+00  1.06682E+03  1.364E+00  7.455E+00  6.709E-01  1.143E+00
   1    5    8     3     5    4.8945E+00  1.5596E+00   3.3348E+00  0.000E+00  0.000E+00  0.000E+00  1.06362E+03  1.164E+00  6.655E+00  4.991E-01  1.562E+00
   1    6    8     3     6    3.3348E+00  5.5980E-01   2.7750E+00  0.000E+00  0.000E+00  0.000E+00  1.06158E+03  1.036E+00  6.145E+00  1.844E-01  1.518E+00
   1    5   10     4     1    1.0000E+01  9.0525E-01   9.0947E+00  0.000E+00  0.000E+00  0.000E+00  1.07835E+03  6.210E-01  1.000E+01  2.500E-01  1.207E+00
   1    5    9     4     2    9.0947E+00  1.7835E+00   7.3113E+00  0.000E+00  0.000E+00  0.000E+00  1.07148E+03  5.670E-01  1.000E+01  5.000E-01  1.189E+00
   1    6    8     4     3    7.3113E+00  1.2257E+00   6.0855E+00  0.000E+00  0.000E+00  0.000E+00  1.06368E+03  5.021E-01  1.000E+01  3.500E-01  1.167E+00
   1    6    8     5     1    8.8606E+00  3.8318E-01   8.4774E+00  0.000E+00  0.000E+00  0.000E+00  1.05864E+03  6.389E-01  1.389E+01  5.554E-01  2.300E-01
   1    7    7     5     2    8.4774E+00  1.4702E+00   7.0072E+00  0.000E+00  0.000E+00  0.000E+00  1.05411E+03  6.141E-01  1.297E+01  6.487E-01  7.554E-01
   1    8    7     5     3    7.0072E+00  1.1338E+00   5.8734E+00  0.000E+00  0.000E+00  0.000E+00  1.04983E+03  5.758E-01  1.162E+01  4.066E-01  9.295E-01
   1    8    6     5     4    5.8734E+00  9.2652E-01   4.9469E+00  0.000E+00  0.000E+00  0.000E+00  1.04679E+03  5.417E-01  1.046E+01  2.616E-01  1.181E+00
   1    9    6     6     1    4.9469E+00  2.0413E+00   2.9056E+00  0.000E+00  0.000E+00  0.000E+00  1.04313E+03  4.021E-01  1.200E+01  6.000E-01  1.134E+00
   1   10    7     6     2    2.9056E+00  1.2848E+00   1.6208E+00  0.000E+00  0.000E+00  0.000E+00  1.03847E+03  2.889E-01  1.200E+01  6.000E-01  7.138E-01
   1   11    7     6     3    1.6208E+00  1.5079E+00   1.1292E-01  0.000E+00  0.000E+00  0.000E+00  1.03380E+03  1.625E-01  1.200E+01  6.000E-01  8.377E-01
   1   12    7     6     4    1.1292E-01  1.1292E-01   0.0000E+00  0.000E+00  0.000E+00  0.000E+00  1.02910E+03  1.076E-02  1.200E+01  6.000E-01  6.439E-01
   1   13    7     6     5    0.0000E+00 -8.0514E-01   8.0514E-01  0.000E+00  0.000E+00  0.000E+00  1.02601E+03  1.025E-01  1.200E+01  2.400E-01 -1.118E+00
   1   14    9     7     1    1.5000E+02  1.6486E+00   1.4835E+02  0.000E+00  0.000E+00  0.000E+00  1.03987E+03  2.287E+00  5.529E+01  5.593E+00  9.826E-02
   1   13    8     7     2    1.4835E+02  1.7173E+00   1.4663E+02  0.000E+00  0.000E+00  0.000E+00  1.03478E+03  2.278E+00  5.525E+01  6.147E+00  9.312E-02
   1   13    7     7     3    1.4663E+02  1.7951E+00   1.4484E+02  0.000E+00  0.000E+00  0.000E+00  1.02969E+03  2.269E+00  5.521E+01  5.584E+00  1.072E-01
   1   13    6     8     1    1.4564E+02  5.1705E-01   1.4513E+02  0.000E+00  0.000E+00  0.000E+00  1.02466E+03  2.784E+00  4.037E+01  4.114E+00  4.190E-02
   1   13    5     8     2    1.4513E+02 -3.8055E-01   1.4551E+02  0.000E+00  0.000E+00  0.000E+00  1.01841E+03  2.784E+00  4.036E+01  4.113E+00 -3.084E-02
   1   13    4     8     3    1.4551E+02 -1.1930E+00   1.4670E+02  0.000E+00  0.000E+00  0.000E+00  1.01216E+03  2.789E+00  4.044E+01  4.121E+00 -9.649E-02
   1   13    3     8     4    1.4670E+02 -1.8487E+00   1.4855E+02  0.000E+00  0.000E+00  0.000E+00  1.00593E+03  2.800E+00  4.060E+01  4.137E+00 -1.489E-01
   1   13    2     8     5    1.4855E+02 -1.9145E+00   1.5046E+02  0.000E+00  0.000E+00  0.000E+00  9.99688E+02  2.813E+00  4.079E+01  4.157E+00 -1.535E-01
   1   13    1     8     6    1.5046E+02 -1.7802E+00   1.5224E+02  0.000E+00  0.000E+00  0.000E+00  9.94701E+02  2.826E+00  4.098E+01  2.506E+00 -2.368E-01



 UBDSV3 SAVING "           GW ET" ON UNIT  61 AT TIME STEP 10, STRESS PERIOD 3
 UBDSV3 SAVING "    UZF RECHARGE" ON UNIT  61 AT TIME STEP 10, STRESS PERIOD 3
 UBDSV3 SAVING " SURFACE LEAKAGE" ON UNIT  61 AT TIME STEP 10, STRESS PERIOD 3
 UBDSV3 SAVING "       HORT+DUNN" ON UNIT  61 AT TIME STEP 10, STRESS PERIOD 3
 UBDSV3 SAVING "  STORAGE CHANGE" ON UNIT  61 AT TIME STEP 10, STRESS PERIOD 3


UNSATURATED ZONE PACKAGE VOLUMETRIC BUDGET FOR  TIME STEP    10 STRESS PERIOD    3
  ------------------------------------------------------------------------------



     CUMULATIVE VOLUMES      L**3       RATES FOR THIS TIME STEP      L**3/T
     ------------------                 ------------------------

           IN:                                      IN:
           ---                                      ---
        INFILTRATION =   312170964.2656          INFILTRATION =          84.7500

          OUT:                                     OUT:
          ----                                     ----
              UZF ET =   480640647.1890                UZF ET =         121.4774
        UZF RECHARGE =    66528085.4416          UZF RECHARGE =          16.3654

            IN - OUT =  -234997768.3650              IN - OUT =         -53.0928

          STORAGE:                                 STORAGE:
          --------                                 --------
      STORAGE CHANGE =  -234926482.2038        STORAGE CHANGE =         -53.0616

 PERCENT DISCREPANCY IS DIFFERENCE BETWEEN IN-OUT MINUS CHANGE IN STORAGE
 DIVIDED BY THE AVERAGE OF IN AND OUT TIMES 100

 PERCENT DISCREPANCY =          -0.00     PERCENT DISCREPANCY =          -0.02






1
  VOLUMETRIC BUDGET FOR ENTIRE MODEL AT END OF TIME STEP   10, STRESS PERIOD   3
  ------------------------------------------------------------------------------

     CUMULATIVE VOLUMES      L**3       RATES FOR THIS TIME STEP      L**3/T
     ------------------                 ------------------------

           IN:                                      IN:
           ---                                      ---
             STORAGE     =      169058.2969               STORAGE     =       3.1524E-02
       CONSTANT HEAD     =           0.0000         CONSTANT HEAD     =           0.0000
               WELLS     =           0.0000                 WELLS     =           0.0000
     HEAD DEP BOUNDS     =     1360731.7500       HEAD DEP BOUNDS     =           0.2062
      STREAM LEAKAGE     =   269652032.0000        STREAM LEAKAGE     =          40.6781
        UZF RECHARGE     =    66528104.0000          UZF RECHARGE     =          16.3654
               GW ET     =           0.0000                 GW ET     =           0.0000
     SURFACE LEAKAGE     =           0.0000       SURFACE LEAKAGE     =           0.0000

                TOTAL IN =   337709920.0000                  TOTAL IN =          57.2813

          OUT:                                     OUT:
          ----                                     ----
             STORAGE     =    49852232.0000               STORAGE     =          23.3297
       CONSTANT HEAD     =           0.0000         CONSTANT HEAD     =           0.0000
               WELLS     =   118302320.0000                 WELLS     =          10.0000
     HEAD DEP BOUNDS     =     1847264.0000       HEAD DEP BOUNDS     =           0.2816
      STREAM LEAKAGE     =    46730412.0000        STREAM LEAKAGE     =           7.9220
        UZF RECHARGE     =           0.0000          UZF RECHARGE     =           0.0000
               GW ET     =   120976688.0000                 GW ET     =          15.7472
     SURFACE LEAKAGE     =           0.0000       SURFACE LEAKAGE     =           0.0000

               TOTAL OUT =   337708928.0000                 TOTAL OUT =          57.2806

                IN - OUT =         992.0000                  IN - OUT =       6.7902E-04

     PERCENT DISCREPANCY =           0.00         PERCENT DISCREPANCY =           0.00






         TIME SUMMARY AT END OF TIME STEP   10 IN STRESS PERIOD    3
                    SECONDS     MINUTES      HOURS       DAYS        YEARS
                    -----------------------------------------------------------
   TIME STEP LENGTH 1.95033E+05  3250.6      54.176      2.2573     6.18023E-03
 STRESS PERIOD TIME 1.31823E+06  21971.      366.18      15.257     4.17723E-02
         TOTAL TIME 6.57423E+06 1.09571E+05  1826.2      76.091     0.20832    
1
 
 SOLVING FOR HEAD 
                                                   Max.-Head-Change                         Max.-Flux-Residual
  Residual-Control   Outer-Iter.   Inner-Iter.     Column Row Layer    Maximum-Head-Change  Column Row Layer    Maximum-Flux-Residual          L2-NORM 
          0                 1           2             6    3     1       0.7034604768E-01       7   11    1         0.1277635222E+01      0.3669622581E+01
          0                 2           2             6    3     1       0.2594698180E-01       6    3    1         0.2960597581E+00      0.5189315094E+00
          0                 3           2             6    3     1       0.9564639755E-02       6    3    1         0.1091306955E+00      0.1559377241E+00
          0                 4           2             6    3     1       0.3524516394E-02       6    3    1         0.4022858967E-01      0.5568429905E-01
          0                 5           2             6    3     1       0.1298438612E-02       6    3    1         0.1482258695E-01      0.2020730146E-01
          0                 6           1             6    3     1       0.4782560012E-03       6    3    1         0.5460443964E-02      0.7382124484E-02
          0                 7           1             6    3     1       0.1761309584E-03       6    3    1         0.2011173109E-02      0.2708058525E-02
          0                 8           1             6    3     1       0.6485776630E-04       6    3    1         0.7406486264E-03      0.9969738612E-03

    ------------------------------------------------
       NWT REQUIRED            8 OUTER ITERATIONS 
       AND A TOTAL OF         13 INNER ITERATIONS.
    ------------------------------------------------

 NO OUTPUT CONTROL FOR STRESS PERIOD    3   TIME STEP   11
 
 SOLVING FOR HEAD 
                                                   Max.-Head-Change                         Max.-Flux-Residual
  Residual-Control   Outer-Iter.   Inner-Iter.     Column Row Layer    Maximum-Head-Change  Column Row Layer    Maximum-Flux-Residual          L2-NORM 
          0                 1           2             6    3     1       0.6750847241E-01       7   11    1         0.1229499036E+01      0.3628465846E+01
          0                 2           2             6    3     1       0.2484043412E-01       6    3    1         0.2594024076E+00      0.4873436929E+00
          0                 3           2             6    3     1       0.9132860602E-02       6    3    1         0.9537721273E-01      0.1416561995E+00
          0                 4           2             6    3     1       0.3356238426E-02       6    3    1         0.3506616332E-01      0.4988395934E-01
          0                 5           2             6    3     1       0.1232970494E-02       6    3    1         0.1288490808E-01      0.1793090345E-01
          0                 6           1             6    3     1       0.4528362487E-03       6    3    1         0.4733214326E-02      0.6502031536E-02
          0                 7           1             6    3     1       0.1662814285E-03       6    3    1         0.1738286215E-02      0.2371257860E-02
          0                 8           1             6    3     1       0.6104920364E-04       6    3    1         0.6382735744E-03      0.8689725139E-03

    ------------------------------------------------
       NWT REQUIRED            8 OUTER ITERATIONS 
       AND A TOTAL OF         13 INNER ITERATIONS.
    ------------------------------------------------

 NO OUTPUT CONTROL FOR STRESS PERIOD    3   TIME STEP   12
 
 SOLVING FOR HEAD 
                                                   Max.-Head-Change                         Max.-Flux-Residual
  Residual-Control   Outer-Iter.   Inner-Iter.     Column Row Layer    Maximum-Head-Change  Column Row Layer    Maximum-Flux-Residual          L2-NORM 
          0                 1           2             6    3     1       0.6508653944E-01       7   11    1         0.1178596257E+01      0.3578889483E+01
          0                 2           2             6    3     1       0.2366240847E-01       6    3    1         0.2263770489E+00      0.4454111092E+00
          0                 3           2             6    3     1       0.8625400312E-02       6    3    1         0.8252573818E-01      0.1227596608E+00
          0                 4           2             6    3     1       0.3142485098E-02       6    3    1         0.3008167277E-01      0.4279912418E-01
          0                 5           2             6    3     1       0.1144475228E-02       6    3    1         0.1095814049E-01      0.1525096543E-01
          0                 6           1             6    3     1       0.4166949514E-03       6    3    1         0.3990639088E-02      0.5484232915E-02
          0                 7           1             6    3     1       0.1516831012E-03       6    3    1         0.1452876418E-02      0.1983842719E-02
          0                 8           1             6    3     1       0.5520583882E-04       6    3    1         0.5288459783E-03      0.7210334503E-03

    ------------------------------------------------
       NWT REQUIRED            8 OUTER ITERATIONS 
       AND A TOTAL OF         13 INNER ITERATIONS.
    ------------------------------------------------

 NO OUTPUT CONTROL FOR STRESS PERIOD    3   TIME STEP   13
 
 SOLVING FOR HEAD 
                                                   Max.-Head-Change                         Max.-Flux-Residual
  Residual-Control   Outer-Iter.   Inner-Iter.     Column Row Layer    Maximum-Head-Change  Column Row Layer    Maximum-Flux-Residual          L2-NORM 
          0                 1           2             7   11     1       0.6711628958E-01       7   11    1         0.1125698553E+01      0.3540634994E+01
          0                 2           2             6    3     1       0.2215615281E-01       6    3    1         0.1943106099E+00      0.4081560715E+00
          0                 3           2             6    3     1       0.8007710177E-02       6    3    1         0.7024213895E-01      0.1047770190E+00
          0                 4           2             6    3     1       0.2892244127E-02       6    3    1         0.2538574679E-01      0.3586830619E-01
          0                 5           1             6    3     1       0.1044141594E-02       6    3    1         0.9167352668E-02      0.1259836975E-01
          0                 6           1             6    3     1       0.3768181963E-03       6    3    1         0.3309274929E-02      0.4471781679E-02
          0                 7           1             6    3     1       0.1359525987E-03       6    3    1         0.1194189341E-02      0.1597764506E-02
          0                 8           1             6    3     1       0.4904025845E-04       6    3    1         0.4308294800E-03      0.5737607465E-03

    ------------------------------------------------
       NWT REQUIRED            8 OUTER ITERATIONS 
       AND A TOTAL OF         12 INNER ITERATIONS.
    ------------------------------------------------

 NO OUTPUT CONTROL FOR STRESS PERIOD    3   TIME STEP   14
 
 SOLVING FOR HEAD 
                                                   Max.-Head-Change                         Max.-Flux-Residual
  Residual-Control   Outer-Iter.   Inner-Iter.     Column Row Layer    Maximum-Head-Change  Column Row Layer    Maximum-Flux-Residual          L2-NORM 
          0                 1           2             7   11     1       0.6997084450E-01       7   11    1         0.1071106810E+01      0.3517465518E+01
          0                 2           2             6    3     1       0.2013566204E-01       6    3    1         0.1619608764E+00      0.3765248731E+00
          0                 3           2             6    3     1       0.7148432276E-02       6    3    1         0.5751149768E-01      0.8947442981E-01
          0                 4           2             6    3     1       0.2535941914E-02       6    3    1         0.2041614794E-01      0.2999713382E-01
          0                 5           1             6    3     1       0.8991877561E-03       6    3    1         0.7241379042E-02      0.1034724719E-01
          0                 6           1             6    3     1       0.3187129612E-03       6    3    1         0.2567404053E-02      0.3611897222E-02
          0                 7           1             6    3     1       0.1129342834E-03       6    3    1         0.9099317584E-03      0.1269989798E-02
          0                 8           1             6    3     1       0.4000899729E-04       6    3    1         0.3224110791E-03      0.4489697842E-03

    ------------------------------------------------
       NWT REQUIRED            8 OUTER ITERATIONS 
       AND A TOTAL OF         12 INNER ITERATIONS.
    ------------------------------------------------

 OUTPUT CONTROL FOR STRESS PERIOD    3   TIME STEP   15
    PRINT BUDGET
    PRINT HEAD FOR ALL LAYERS
    SAVE HEAD FOR ALL LAYERS
    SAVE BUDGET

            WELLS   PERIOD    3   STEP  15
 WELL      1   LAYER   1   ROW     6   COL     4   RATE    -1.00000    
 WELL      2   LAYER   1   ROW     6   COL     5   RATE    -1.00000    
 WELL      3   LAYER   1   ROW     7   COL     4   RATE    -1.00000    
 WELL      4   LAYER   1   ROW     7   COL     5   RATE    -1.00000    
 WELL      5   LAYER   1   ROW     8   COL     4   RATE    -1.00000    
 WELL      6   LAYER   1   ROW     8   COL     5   RATE    -1.00000    
 WELL      7   LAYER   1   ROW     9   COL     4   RATE    -1.00000    
 WELL      8   LAYER   1   ROW     9   COL     5   RATE    -1.00000    
 WELL      9   LAYER   1   ROW    10   COL     4   RATE    -1.00000    
 WELL     10   LAYER   1   ROW    10   COL     5   RATE    -1.00000    

  HEAD DEP BOUNDS   PERIOD    3   STEP    15
 BOUNDARY      1   LAYER   1   ROW    13   COL     1   RATE   -0.282148    
 BOUNDARY      2   LAYER   1   ROW    14   COL     9   RATE    0.206223    



 STREAM LISTING     PERIOD      3   STEP       15

 LAYER ROW COL. STREAM  RCH.  FLOW INTO     FLOW TO   FLOW OUT OF   OVRLND.     DIRECT     STREAM       STREAM     STREAM     STREAM   STREAMBED  STREAMBED
                SEG.NO.  NO.  STRM. RCH.    AQUIFER    STRM. RCH.    RUNOFF     PRECIP       ET          HEAD       DEPTH      WIDTH   CONDCTNC.   GRADIENT

   1    1    1     1     1    2.5000E+01  1.1279E+00   2.3872E+01  0.000E+00  0.000E+00  0.000E+00  1.09422E+03  1.172E+00  1.295E+01  5.827E-01  6.452E-01
   1    2    2     1     2    2.3872E+01  2.5962E+00   2.1276E+01  0.000E+00  0.000E+00  0.000E+00  1.08920E+03  1.143E+00  1.257E+01  8.796E-01  9.839E-01
   1    3    3     1     3    2.1276E+01  2.9357E+00   1.8340E+01  0.000E+00  0.000E+00  0.000E+00  1.08352E+03  1.097E+00  1.194E+01  7.166E-01  1.366E+00
   1    3    4     1     4    1.8340E+01  2.4952E+00   1.5845E+01  0.000E+00  0.000E+00  0.000E+00  1.07846E+03  1.051E+00  1.110E+01  6.159E-01  1.350E+00
   1    4    5     2     1    5.8451E+00  2.6769E+00   3.1681E+00  0.000E+00  0.000E+00  0.000E+00  1.07237E+03  4.320E-01  1.200E+01  7.800E-01  1.144E+00
   1    5    6     2     2    3.1681E+00  1.9678E+00   1.2003E+00  0.000E+00  0.000E+00  0.000E+00  1.06679E+03  2.797E-01  1.200E+01  6.000E-01  1.093E+00
   1    6    6     2     3    1.2003E+00  1.2003E+00   0.0000E+00  0.000E+00  0.000E+00  0.000E+00  1.06184E+03  4.394E-02  1.200E+01  6.000E-01  1.015E+00
   1    7    6     2     4    0.0000E+00  0.0000E+00   0.0000E+00  0.000E+00  0.000E+00  0.000E+00  1.05708E+03  0.000E+00  1.200E+01  6.000E-01  1.000E+00
   1    8    6     2     5    0.0000E+00  0.0000E+00   0.0000E+00  0.000E+00  0.000E+00  0.000E+00  1.05236E+03  0.000E+00  1.200E+01  6.000E-01  1.000E+00
   1    3    5     3     1    1.0000E+01  9.6107E-01   9.0389E+00  0.000E+00  0.000E+00  0.000E+00  1.07555E+03  1.909E+00  9.636E+00  7.227E-01  6.649E-01
   1    3    6     3     2    9.0389E+00  8.6225E-01   8.1767E+00  0.000E+00  0.000E+00  0.000E+00  1.07264E+03  1.727E+00  8.909E+00  6.682E-01  6.452E-01
   1    3    7     3     3    8.1767E+00  8.7392E-01   7.3028E+00  0.000E+00  0.000E+00  0.000E+00  1.06987E+03  1.555E+00  8.218E+00  5.547E-01  7.877E-01
   1    4    8     3     4    7.3028E+00  1.5597E+00   5.7430E+00  0.000E+00  0.000E+00  0.000E+00  1.06682E+03  1.364E+00  7.455E+00  6.709E-01  1.162E+00
   1    5    8     3     5    5.7430E+00  1.5363E+00   4.2067E+00  0.000E+00  0.000E+00  0.000E+00  1.06362E+03  1.164E+00  6.655E+00  4.991E-01  1.539E+00
   1    6    8     3     6    4.2067E+00  5.5980E-01   3.6469E+00  0.000E+00  0.000E+00  0.000E+00  1.06158E+03  1.036E+00  6.145E+00  1.844E-01  1.518E+00
   1    5   10     4     1    1.0000E+01  9.0525E-01   9.0947E+00  0.000E+00  0.000E+00  0.000E+00  1.07835E+03  6.210E-01  1.000E+01  2.500E-01  1.207E+00
   1    5    9     4     2    9.0947E+00  1.7835E+00   7.3113E+00  0.000E+00  0.000E+00  0.000E+00  1.07148E+03  5.670E-01  1.000E+01  5.000E-01  1.189E+00
   1    6    8     4     3    7.3113E+00  1.2257E+00   6.0855E+00  0.000E+00  0.000E+00  0.000E+00  1.06368E+03  5.021E-01  1.000E+01  3.500E-01  1.167E+00
   1    6    8     5     1    9.7324E+00  3.8978E-01   9.3426E+00  0.000E+00  0.000E+00  0.000E+00  1.05866E+03  6.606E-01  1.470E+01  5.882E-01  2.209E-01
   1    7    7     5     2    9.3426E+00  1.5257E+00   7.8169E+00  0.000E+00  0.000E+00  0.000E+00  1.05414E+03  6.366E-01  1.380E+01  6.900E-01  7.371E-01
   1    8    7     5     3    7.8169E+00  1.1955E+00   6.6214E+00  0.000E+00  0.000E+00  0.000E+00  1.04985E+03  5.992E-01  1.244E+01  4.355E-01  9.152E-01
   1    8    6     5     4    6.6214E+00  1.0043E+00   5.6171E+00  0.000E+00  0.000E+00  0.000E+00  1.04682E+03  5.655E-01  1.127E+01  2.817E-01  1.189E+00
   1    9    6     6     1    5.6171E+00  2.0440E+00   3.5731E+00  0.000E+00  0.000E+00  0.000E+00  1.04317E+03  4.419E-01  1.200E+01  6.000E-01  1.136E+00
   1   10    7     6     2    3.5731E+00  1.2772E+00   2.2958E+00  0.000E+00  0.000E+00  0.000E+00  1.03852E+03  3.377E-01  1.200E+01  6.000E-01  7.096E-01
   1   11    7     6     3    2.2958E+00  1.3643E+00   9.3152E-01  0.000E+00  0.000E+00  0.000E+00  1.03387E+03  2.359E-01  1.200E+01  6.000E-01  7.580E-01
   1   12    7     6     4    9.3152E-01  9.3152E-01   0.0000E+00  0.000E+00  0.000E+00  0.000E+00  1.02913E+03  3.816E-02  1.200E+01  6.000E-01  5.763E-01
   1   13    7     6     5    0.0000E+00 -8.0576E-01   8.0576E-01  0.000E+00  0.000E+00  0.000E+00  1.02601E+03  1.026E-01  1.200E+01  2.400E-01 -1.119E+00
   1   14    9     7     1    1.5000E+02  1.6470E+00   1.4835E+02  0.000E+00  0.000E+00  0.000E+00  1.03987E+03  2.287E+00  5.529E+01  5.593E+00  9.817E-02
   1   13    8     7     2    1.4835E+02  1.7121E+00   1.4664E+02  0.000E+00  0.000E+00  0.000E+00  1.03478E+03  2.278E+00  5.525E+01  6.147E+00  9.284E-02
   1   13    7     7     3    1.4664E+02  1.7811E+00   1.4486E+02  0.000E+00  0.000E+00  0.000E+00  1.02969E+03  2.269E+00  5.521E+01  5.584E+00  1.063E-01
   1   13    6     8     1    1.4567E+02  4.9594E-01   1.4517E+02  0.000E+00  0.000E+00  0.000E+00  1.02466E+03  2.784E+00  4.037E+01  4.114E+00  4.018E-02
   1   13    5     8     2    1.4517E+02 -4.8053E-01   1.4565E+02  0.000E+00  0.000E+00  0.000E+00  1.01841E+03  2.784E+00  4.037E+01  4.114E+00 -3.894E-02
   1   13    4     8     3    1.4565E+02 -1.3032E+00   1.4695E+02  0.000E+00  0.000E+00  0.000E+00  1.01217E+03  2.791E+00  4.046E+01  4.123E+00 -1.053E-01
   1   13    3     8     4    1.4695E+02 -1.9716E+00   1.4892E+02  0.000E+00  0.000E+00  0.000E+00  1.00593E+03  2.802E+00  4.063E+01  4.141E+00 -1.587E-01
   1   13    2     8     5    1.4892E+02 -1.9233E+00   1.5085E+02  0.000E+00  0.000E+00  0.000E+00  9.99691E+02  2.816E+00  4.083E+01  4.161E+00 -1.541E-01
   1   13    1     8     6    1.5085E+02 -1.8080E+00   1.5266E+02  0.000E+00  0.000E+00  0.000E+00  9.94704E+02  2.829E+00  4.102E+01  2.508E+00 -2.403E-01



 UBDSV3 SAVING "           GW ET" ON UNIT  61 AT TIME STEP 15, STRESS PERIOD 3
 UBDSV3 SAVING "    UZF RECHARGE" ON UNIT  61 AT TIME STEP 15, STRESS PERIOD 3
 UBDSV3 SAVING " SURFACE LEAKAGE" ON UNIT  61 AT TIME STEP 15, STRESS PERIOD 3
 UBDSV3 SAVING "       HORT+DUNN" ON UNIT  61 AT TIME STEP 15, STRESS PERIOD 3
 UBDSV3 SAVING "  STORAGE CHANGE" ON UNIT  61 AT TIME STEP 15, STRESS PERIOD 3


UNSATURATED ZONE PACKAGE VOLUMETRIC BUDGET FOR  TIME STEP    15 STRESS PERIOD    3
  ------------------------------------------------------------------------------



     CUMULATIVE VOLUMES      L**3       RATES FOR THIS TIME STEP      L**3/T
     ------------------                 ------------------------

           IN:                                      IN:
           ---                                      ---
        INFILTRATION =   423173665.3594          INFILTRATION =          84.7500

          OUT:                                     OUT:
          ----                                     ----
              UZF ET =   627117938.3901                UZF ET =         105.8964
        UZF RECHARGE =    87835773.1803          UZF RECHARGE =          16.1312

            IN - OUT =  -291780046.2111              IN - OUT =         -37.2776

          STORAGE:                                 STORAGE:
          --------                                 --------
      STORAGE CHANGE =  -291664748.9054        STORAGE CHANGE =         -37.2503

 PERCENT DISCREPANCY IS DIFFERENCE BETWEEN IN-OUT MINUS CHANGE IN STORAGE
 DIVIDED BY THE AVERAGE OF IN AND OUT TIMES 100

 PERCENT DISCREPANCY =          -0.00     PERCENT DISCREPANCY =          -0.02






1
              HEAD IN LAYER 1 AT END OF TIME STEP 15 IN STRESS PERIOD 3
  ---------------------------------------------------------------------------

           1       2       3       4       5       6       7       8       9      10
 ...................................................................................
   1  1092.28 1087.69 6999.00 6999.00 6999.00 6999.00 6999.00 6999.00 6999.00 6999.00
   2  1087.75 1086.25 1078.16 6999.00 6999.00 1069.46 1069.27 1068.70 6999.00 6999.00
   3  6999.00 1074.79 1078.64 1073.96 1074.22 1071.35 1068.30 1065.89 6999.00 6999.00
   4  1065.89 1065.84 1064.71 1063.37 1066.11 1061.14 1059.56 1064.49 1062.08 6999.00
   5  1062.54 1059.27 1055.53 1053.11 1055.37 1060.35 1057.02 1060.54 1064.35 1065.56
   6  1058.73 1054.03 1049.38 1037.64 1041.02 1052.80 1053.81 1058.00 1057.61 1063.16
   7  1055.86 1048.97 1043.90 1028.87 1032.84 1045.36 1051.93 1052.51 1053.30 6999.00
   8  6999.00 1043.00 1039.17 1025.01 1028.63 1042.54 1047.10 1047.30 1049.78 6999.00
   9  6999.00 1037.08 1034.35 1021.20 1025.35 1039.76 1039.96 1041.42 1045.48 6999.00
  10  6999.00 1031.23 1029.84 1019.35 1022.07 1032.01 1036.39 1037.12 1041.76 1046.49
  11  6999.00 1023.71 1024.16 1023.70 1025.37 1028.68 1031.60 1033.70 1037.82 6999.00
  12  1006.69 1013.40 1015.87 1019.43 1022.24 1025.19 1027.40 1030.40 1035.18 6999.00
  13   995.42 1000.15 1006.40 1012.48 1018.53 1024.54 1029.37 1034.50 1035.87 6999.00
  14  6999.00 1012.46 1017.22 1021.76 1025.60 1028.77 1031.42 1034.72 1039.57 6999.00
  15  6999.00 6999.00 1026.37 1028.59 1031.16 1032.89 6999.00 6999.00 6999.00 6999.00
1
              HEAD IN LAYER 2 AT END OF TIME STEP 15 IN STRESS PERIOD 3
  ---------------------------------------------------------------------------

           1       2       3       4       5       6       7       8       9      10
 ...................................................................................
   1  1091.09 1087.13 6999.00 6999.00 6999.00 6999.00 6999.00 6999.00 6999.00 6999.00
   2  1087.51 1080.74 1075.30 6999.00 6999.00 1068.90 1068.77 1068.34 6999.00 6999.00
   3  6999.00 1072.60 1067.95 1064.18 1063.71 1064.39 1064.92 1065.38 6999.00 6999.00
   4  1065.19 1065.07 1062.09 1058.64 1057.25 1056.79 1058.15 1061.57 1061.68 6999.00
   5  1061.80 1058.49 1055.26 1053.15 1052.90 1053.28 1053.71 1055.68 1059.77 1063.76
   6  1058.05 1053.39 1049.59 1047.85 1048.14 1049.51 1050.93 1052.93 1056.71 1062.83
   7  1055.15 1048.40 1044.44 1042.93 1043.64 1045.40 1047.48 1050.10 1053.15 6999.00
   8  6999.00 1042.60 1039.63 1038.48 1039.36 1041.20 1043.19 1046.95 1049.46 6999.00
   9  6999.00 1036.60 1034.75 1034.17 1035.22 1037.08 1038.66 1041.23 1045.14 6999.00
  10  6999.00 1030.76 1030.14 1030.45 1031.69 1033.45 1034.82 1036.94 1041.32 1046.49
  11  6999.00 1023.81 1024.81 1027.17 1028.82 1030.59 1032.06 1033.84 1037.50 6999.00
  12  1006.97 1014.65 1019.63 1023.41 1026.06 1028.32 1029.97 1031.60 1035.13 6999.00
  13  1000.25 1007.69 1015.62 1020.86 1024.36 1027.26 1029.80 1032.55 1035.40 6999.00
  14  6999.00 1012.73 1017.53 1021.98 1025.61 1028.60 1031.08 1034.27 1036.91 6999.00
  15  6999.00 6999.00 1026.37 1028.59 1030.70 1032.43 6999.00 6999.00 6999.00 6999.00

 HEAD WILL BE SAVED ON UNIT   58 AT END OF TIME STEP   15, STRESS PERIOD    3
1
  VOLUMETRIC BUDGET FOR ENTIRE MODEL AT END OF TIME STEP   15, STRESS PERIOD   3
  ------------------------------------------------------------------------------

     CUMULATIVE VOLUMES      L**3       RATES FOR THIS TIME STEP      L**3/T
     ------------------                 ------------------------

           IN:                                      IN:
           ---                                      ---
             STORAGE     =      419709.5938               STORAGE     =           0.2033
       CONSTANT HEAD     =           0.0000         CONSTANT HEAD     =           0.0000
               WELLS     =           0.0000                 WELLS     =           0.0000
     HEAD DEP BOUNDS     =     1630841.3750       HEAD DEP BOUNDS     =           0.2062
      STREAM LEAKAGE     =   322904544.0000        STREAM LEAKAGE     =          40.6361
        UZF RECHARGE     =    87835792.0000          UZF RECHARGE     =          16.1312
               GW ET     =           0.0000                 GW ET     =           0.0000
     SURFACE LEAKAGE     =           0.0000       SURFACE LEAKAGE     =           0.0000

                TOTAL IN =   412790912.0000                  TOTAL IN =          57.1768

          OUT:                                     OUT:
          ----                                     ----
             STORAGE     =    79363224.0000               STORAGE     =          22.0750
       CONSTANT HEAD     =           0.0000         CONSTANT HEAD     =           0.0000
               WELLS     =   131399984.0000                 WELLS     =          10.0000
     HEAD DEP BOUNDS     =     2216377.7500       HEAD DEP BOUNDS     =           0.2821
      STREAM LEAKAGE     =    57429984.0000        STREAM LEAKAGE     =           8.2924
        UZF RECHARGE     =           0.0000          UZF RECHARGE     =           0.0000
               GW ET     =   142379744.0000                 GW ET     =          16.5271
     SURFACE LEAKAGE     =           0.0000       SURFACE LEAKAGE     =           0.0000

               TOTAL OUT =   412789312.0000                 TOTAL OUT =          57.1765

                IN - OUT =        1600.0000                  IN - OUT =       2.6703E-04

     PERCENT DISCREPANCY =           0.00         PERCENT DISCREPANCY =           0.00






         TIME SUMMARY AT END OF TIME STEP   15 IN STRESS PERIOD    3
                    SECONDS     MINUTES      HOURS       DAYS        YEARS
                    -----------------------------------------------------------
   TIME STEP LENGTH 3.14103E+05  5235.0      87.251      3.6354     9.95332E-03
 STRESS PERIOD TIME 2.62800E+06  43800.      730.00      30.417     8.32763E-02
         TOTAL TIME 7.88400E+06 1.31400E+05  2190.0      91.250     0.24983    
1
1
                            STRESS PERIOD NO.    4, LENGTH =   2628000.    
                            -----------------------------------------------

                              NUMBER OF TIME STEPS =    15

                               MULTIPLIER FOR DELT =     1.100

                            INITIAL TIME STEP SIZE =   82713.07    

 WELL NO.  LAYER   ROW   COL   STRESS RATE         
 --------------------------------------------------
      1      1      6      4      -1.000    
      2      1      6      5      -1.000    
      3      1      7      4      -1.000    
      4      1      7      5      -1.000    
      5      1      8      4      -1.000    
      6      1      8      5      -1.000    
      7      1      9      4      -1.000    
      8      1      9      5      -1.000    
      9      1     10      4      -1.000    
     10      1     10      5      -1.000    

     10 WELLS

 REUSING NON-PARAMETER GHB CELLS FROM LAST STRESS PERIOD

      2 GHB CELLS

 REUSING STREAM SEGMENT DATA FROM LAST STRESS PERIOD



            AREAL INFILTRATION RATE
 READING ON UNIT   19 WITH FORMAT: (10F4.0)            

            1           2           3           4           5           6           7           8           9          10
 ........................................................................................................................
   1   2.0000E-08  4.0000E-08   0.000       0.000       0.000       0.000       0.000       0.000       0.000       0.000    
   2   4.0000E-08  2.0000E-08  4.0000E-08   0.000       0.000      1.6000E-07  1.6000E-07  1.0000E-07   0.000       0.000    
   3    0.000      1.0000E-07  2.0000E-08  2.0000E-08  1.6000E-07  1.6000E-07  1.0000E-07  1.0000E-07   0.000       0.000    
   4   1.6000E-07  1.0000E-07  2.0000E-08  2.0000E-08  2.0000E-08  2.0000E-08  2.0000E-08  2.0000E-08  4.0000E-08   0.000    
   5   1.6000E-07  1.0000E-07  2.0000E-08  2.0000E-08  2.0000E-08  2.0000E-08  2.0000E-08  2.0000E-08  2.0000E-08  2.0000E-08
   6   1.6000E-07  1.0000E-07  1.0000E-07  4.0000E-08  4.0000E-08  2.0000E-08  2.0000E-08  2.0000E-08  2.0000E-08  1.0000E-07
   7   1.6000E-07  1.0000E-07  1.0000E-07  4.0000E-08  4.0000E-08  2.0000E-08  2.0000E-08  4.0000E-08  4.0000E-08   0.000    
   8    0.000      1.0000E-07  1.0000E-07  4.0000E-08  4.0000E-08  2.0000E-08  2.0000E-08  4.0000E-08  1.0000E-07   0.000    
   9    0.000      1.0000E-07  1.0000E-07  4.0000E-08  4.0000E-08  2.0000E-08  2.0000E-08  4.0000E-08  1.0000E-07   0.000    
  10    0.000      1.0000E-07  1.0000E-07  4.0000E-08  4.0000E-08  2.0000E-08  2.0000E-08  4.0000E-08  1.0000E-07  1.6000E-07
  11    0.000      2.0000E-08  2.0000E-08  2.0000E-08  2.0000E-08  2.0000E-08  2.0000E-08  4.0000E-08  1.0000E-07   0.000    
  12   2.0000E-08  2.0000E-08  2.0000E-08  2.0000E-08  2.0000E-08  2.0000E-08  2.0000E-08  2.0000E-08  4.0000E-08   0.000    
  13   2.0000E-08  2.0000E-08  4.0000E-08  4.0000E-08  4.0000E-08  4.0000E-08  4.0000E-08  2.0000E-08  2.0000E-08   0.000    
  14    0.000      4.0000E-08  1.0000E-07  1.0000E-07  1.0000E-07  1.0000E-07  1.0000E-07  4.0000E-08  2.0000E-08   0.000    
  15    0.000       0.000      1.6000E-07  1.6000E-07  1.6000E-07  1.6000E-07   0.000       0.000       0.000       0.000    

USING ET RATE FROM PREVIOUS STRESS PERIOD. CURRENT PERIOD IS:       4

 USING ET EXTINCTION DEPTH FROM PREVIOUS STRESS PERIOD. CURRENT PERIOD IS:       4

 USING EXTINCTION WATER CONTENT FROM PREVIOUS STRESS PERIOD. CURRENT PERIOD IS:       4
 
 SOLVING FOR HEAD 
                                                   Max.-Head-Change                         Max.-Flux-Residual
  Residual-Control   Outer-Iter.   Inner-Iter.     Column Row Layer    Maximum-Head-Change  Column Row Layer    Maximum-Flux-Residual          L2-NORM 
          0                 1           2             7   12     1       0.1946322129E-01       7   12    1         0.1076268504E+01      0.3510226544E+01
          0                 2           2             6    3     1       0.5303358223E-02       6    3    1         0.1501425558E+00      0.3576177727E+00
          0                 3           2             6    3     1       0.2092023485E-02       6    3    1         0.5921513560E-01      0.9051838152E-01
          0                 4           1             6    3     1       0.8250804760E-03       6    3    1         0.2335987235E-01      0.3294614349E-01
          0                 5           1             6    3     1       0.3253608712E-03       6    3    1         0.9212402706E-02      0.1255474494E-01
          0                 6           1             6    3     1       0.1282886914E-03       6    3    1         0.3632732989E-02      0.4854480603E-02
          0                 7           1             6    3     1       0.5057965491E-04       6    3    1         0.1432343012E-02      0.1892434732E-02

    ------------------------------------------------
       NWT REQUIRED            7 OUTER ITERATIONS 
       AND A TOTAL OF         10 INNER ITERATIONS.
    ------------------------------------------------

 NO OUTPUT CONTROL FOR STRESS PERIOD    4   TIME STEP    1
 
 SOLVING FOR HEAD 
                                                   Max.-Head-Change                         Max.-Flux-Residual
  Residual-Control   Outer-Iter.   Inner-Iter.     Column Row Layer    Maximum-Head-Change  Column Row Layer    Maximum-Flux-Residual          L2-NORM 
          0                 1           2             7   12     1       0.2207724423E-01       7   12    1         0.1110598367E+01      0.3503580475E+01
          0                 2           2             6    3     1       0.5575692536E-02       6    3    1         0.1439116518E+00      0.3493590668E+00
          0                 3           2             6    3     1       0.2192343553E-02       6    3    1         0.5657483119E-01      0.8637364626E-01
          0                 4           1             6    3     1       0.8618332779E-03       6    3    1         0.2224611801E-01      0.3129307963E-01
          0                 5           1             6    3     1       0.3387435333E-03       6    3    1         0.8744588526E-02      0.1188580682E-01
          0                 6           1             6    3     1       0.1331276337E-03       6    3    1         0.3436985156E-02      0.4581276278E-02
          0                 7           1             6    3     1       0.5231500161E-04       6    3    1         0.1350717161E-02      0.1780735098E-02

    ------------------------------------------------
       NWT REQUIRED            7 OUTER ITERATIONS 
       AND A TOTAL OF         10 INNER ITERATIONS.
    ------------------------------------------------

 NO OUTPUT CONTROL FOR STRESS PERIOD    4   TIME STEP    2
 
 SOLVING FOR HEAD 
                                                   Max.-Head-Change                         Max.-Flux-Residual
  Residual-Control   Outer-Iter.   Inner-Iter.     Column Row Layer    Maximum-Head-Change  Column Row Layer    Maximum-Flux-Residual          L2-NORM 
          0                 1           2             7   12     1       0.2505307328E-01       7   12    1         0.1146608358E+01      0.3497388345E+01
          0                 2           2             6    3     1       0.5764296681E-02       6    3    1         0.1356737642E+00      0.3416494574E+00
          0                 3           2             6    3     1       0.2258550221E-02       6    3    1         0.5314958968E-01      0.8171343633E-01
          0                 4           1             6    3     1       0.8847177423E-03       6    3    1         0.2082590207E-01      0.2935474102E-01
          0                 5           1             6    3     1       0.3465005220E-03       6    3    1         0.8157291616E-02      0.1110623585E-01
          0                 6           1             6    3     1       0.1356893501E-03       6    3    1         0.3194730324E-02      0.4261144171E-02
          0                 7           1             6    3     1       0.5313040863E-04       6    3    1         0.1251020002E-02      0.1649583887E-02

    ------------------------------------------------
       NWT REQUIRED            7 OUTER ITERATIONS 
       AND A TOTAL OF         10 INNER ITERATIONS.
    ------------------------------------------------

 NO OUTPUT CONTROL FOR STRESS PERIOD    4   TIME STEP    3
 
 SOLVING FOR HEAD 
                                                   Max.-Head-Change                         Max.-Flux-Residual
  Residual-Control   Outer-Iter.   Inner-Iter.     Column Row Layer    Maximum-Head-Change  Column Row Layer    Maximum-Flux-Residual          L2-NORM 
          0                 1           2             7   12     1       0.2760773531E-01       7   12    1         0.1164618247E+01      0.3486628958E+01
          0                 2           2             6    3     1       0.5969524547E-02       6    3    1         0.1281618734E+00      0.3382571889E+00
          0                 3           2             6    3     1       0.2328026487E-02       6    3    1         0.4997285644E-01      0.7795725234E-01
          0                 4           1             6    3     1       0.9076416112E-03       6    3    1         0.1948952572E-01      0.2781676294E-01
          0                 5           1             6    3     1       0.3537998909E-03       6    3    1         0.7597868768E-02      0.1049269397E-01
          0                 6           1             6    3     1       0.1378921416E-03       6    3    1         0.2961576917E-02      0.4017201930E-02
          0                 7           1             6    3     1       0.5373717027E-04       6    3    1         0.1154229526E-02      0.1552837716E-02

    ------------------------------------------------
       NWT REQUIRED            7 OUTER ITERATIONS 
       AND A TOTAL OF         10 INNER ITERATIONS.
    ------------------------------------------------

 NO OUTPUT CONTROL FOR STRESS PERIOD    4   TIME STEP    4
 
 SOLVING FOR HEAD 
                                                   Max.-Head-Change                         Max.-Flux-Residual
  Residual-Control   Outer-Iter.   Inner-Iter.     Column Row Layer    Maximum-Head-Change  Column Row Layer    Maximum-Flux-Residual          L2-NORM 
          0                 1           2             5    3     1       0.6475393591E-01       5    3    1         0.1271950586E+01      0.3680256597E+01
          0                 2           2             5    3     1       0.3312513781E-01       5    3    1         0.6512721635E+00      0.7245118534E+00
          0                 3           2             5    3     1       0.1694288277E-01       5    3    1         0.3331030969E+00      0.3392492757E+00
          0                 4           2             5    3     1       0.8665488180E-02       5    3    1         0.1703770575E+00      0.1717960671E+00
          0                 5           1             5    3     1       0.4431810668E-02       5    3    1         0.8713899385E-01      0.8752343653E-01
          0                 6           1             5    3     1       0.2266503948E-02       5    3    1         0.4456546646E-01      0.4467585706E-01
          0                 7           1             5    3     1       0.1159103444E-02       5    3    1         0.2279144369E-01      0.2282468362E-01
          0                 8           1             5    3     1       0.5927625457E-03       5    3    1         0.1165564054E-01      0.1166627120E-01
          0                 9           1             5    3     1       0.3031335058E-03       5    3    1         0.5960650057E-02      0.5964414859E-02
          0                10           1             5    3     1       0.1550183437E-03       5    3    1         0.3048217818E-02      0.3049867439E-02
          0                11           1             5    3     1       0.7927371363E-04       5    3    1         0.1558814832E-02      0.1559877927E-02

    ------------------------------------------------
       NWT REQUIRED           11 OUTER ITERATIONS 
       AND A TOTAL OF         15 INNER ITERATIONS.
    ------------------------------------------------

 OUTPUT CONTROL FOR STRESS PERIOD    4   TIME STEP    5
    PRINT BUDGET
    SAVE BUDGET

            WELLS   PERIOD    4   STEP   5
 WELL      1   LAYER   1   ROW     6   COL     4   RATE    -1.00000    
 WELL      2   LAYER   1   ROW     6   COL     5   RATE    -1.00000    
 WELL      3   LAYER   1   ROW     7   COL     4   RATE    -1.00000    
 WELL      4   LAYER   1   ROW     7   COL     5   RATE    -1.00000    
 WELL      5   LAYER   1   ROW     8   COL     4   RATE    -1.00000    
 WELL      6   LAYER   1   ROW     8   COL     5   RATE    -1.00000    
 WELL      7   LAYER   1   ROW     9   COL     4   RATE    -1.00000    
 WELL      8   LAYER   1   ROW     9   COL     5   RATE    -1.00000    
 WELL      9   LAYER   1   ROW    10   COL     4   RATE    -1.00000    
 WELL     10   LAYER   1   ROW    10   COL     5   RATE    -1.00000    

  HEAD DEP BOUNDS   PERIOD    4   STEP     5
 BOUNDARY      1   LAYER   1   ROW    13   COL     1   RATE   -0.282730    
 BOUNDARY      2   LAYER   1   ROW    14   COL     9   RATE    0.206220    



 STREAM LISTING     PERIOD      4   STEP        5

 LAYER ROW COL. STREAM  RCH.  FLOW INTO     FLOW TO   FLOW OUT OF   OVRLND.     DIRECT     STREAM       STREAM     STREAM     STREAM   STREAMBED  STREAMBED
                SEG.NO.  NO.  STRM. RCH.    AQUIFER    STRM. RCH.    RUNOFF     PRECIP       ET          HEAD       DEPTH      WIDTH   CONDCTNC.   GRADIENT

   1    1    1     1     1    2.5000E+01  1.1242E+00   2.3876E+01  0.000E+00  0.000E+00  0.000E+00  1.09422E+03  1.172E+00  1.295E+01  5.828E-01  6.431E-01
   1    2    2     1     2    2.3876E+01  2.5899E+00   2.1286E+01  0.000E+00  0.000E+00  0.000E+00  1.08920E+03  1.143E+00  1.257E+01  8.797E-01  9.814E-01
   1    3    3     1     3    2.1286E+01  2.9365E+00   1.8349E+01  0.000E+00  0.000E+00  0.000E+00  1.08352E+03  1.097E+00  1.195E+01  7.167E-01  1.366E+00
   1    3    4     1     4    1.8349E+01  2.4959E+00   1.5853E+01  0.000E+00  0.000E+00  0.000E+00  1.07846E+03  1.051E+00  1.110E+01  6.161E-01  1.350E+00
   1    4    5     2     1    5.8534E+00  2.6773E+00   3.1761E+00  0.000E+00  0.000E+00  0.000E+00  1.07237E+03  4.324E-01  1.200E+01  7.800E-01  1.144E+00
   1    5    6     2     2    3.1761E+00  1.9682E+00   1.2079E+00  0.000E+00  0.000E+00  0.000E+00  1.06679E+03  2.803E-01  1.200E+01  6.000E-01  1.093E+00
   1    6    6     2     3    1.2079E+00  1.2079E+00   0.0000E+00  0.000E+00  0.000E+00  0.000E+00  1.06184E+03  4.411E-02  1.200E+01  6.000E-01  1.015E+00
   1    7    6     2     4    0.0000E+00  0.0000E+00   0.0000E+00  0.000E+00  0.000E+00  0.000E+00  1.05708E+03  0.000E+00  1.200E+01  6.000E-01  1.000E+00
   1    8    6     2     5    0.0000E+00  0.0000E+00   0.0000E+00  0.000E+00  0.000E+00  0.000E+00  1.05236E+03  0.000E+00  1.200E+01  6.000E-01  1.000E+00
   1    3    5     3     1    1.0000E+01  8.1276E-01   9.1872E+00  0.000E+00  0.000E+00  0.000E+00  1.07555E+03  1.909E+00  9.636E+00  7.227E-01  5.623E-01
   1    3    6     3     2    9.1872E+00  7.8162E-01   8.4056E+00  0.000E+00  0.000E+00  0.000E+00  1.07264E+03  1.727E+00  8.909E+00  6.682E-01  5.849E-01
   1    3    7     3     3    8.4056E+00  8.0536E-01   7.6003E+00  0.000E+00  0.000E+00  0.000E+00  1.06987E+03  1.555E+00  8.218E+00  5.547E-01  7.259E-01
   1    4    8     3     4    7.6003E+00  1.5685E+00   6.0317E+00  0.000E+00  0.000E+00  0.000E+00  1.06682E+03  1.364E+00  7.455E+00  6.709E-01  1.169E+00
   1    5    8     3     5    6.0317E+00  1.5286E+00   4.5032E+00  0.000E+00  0.000E+00  0.000E+00  1.06362E+03  1.164E+00  6.655E+00  4.991E-01  1.531E+00
   1    6    8     3     6    4.5032E+00  5.5980E-01   3.9434E+00  0.000E+00  0.000E+00  0.000E+00  1.06158E+03  1.036E+00  6.145E+00  1.844E-01  1.518E+00
   1    5   10     4     1    1.0000E+01  9.0525E-01   9.0947E+00  0.000E+00  0.000E+00  0.000E+00  1.07835E+03  6.210E-01  1.000E+01  2.500E-01  1.207E+00
   1    5    9     4     2    9.0947E+00  1.7835E+00   7.3113E+00  0.000E+00  0.000E+00  0.000E+00  1.07148E+03  5.670E-01  1.000E+01  5.000E-01  1.189E+00
   1    6    8     4     3    7.3113E+00  1.2257E+00   6.0855E+00  0.000E+00  0.000E+00  0.000E+00  1.06368E+03  5.021E-01  1.000E+01  3.500E-01  1.167E+00
   1    6    8     5     1    1.0029E+01  3.9070E-01   9.6382E+00  0.000E+00  0.000E+00  0.000E+00  1.05867E+03  6.677E-01  1.498E+01  5.991E-01  2.174E-01
   1    7    7     5     2    9.6382E+00  1.5401E+00   8.0981E+00  0.000E+00  0.000E+00  0.000E+00  1.05414E+03  6.440E-01  1.408E+01  7.038E-01  7.294E-01
   1    8    7     5     3    8.0981E+00  1.2135E+00   6.8845E+00  0.000E+00  0.000E+00  0.000E+00  1.04986E+03  6.070E-01  1.272E+01  4.452E-01  9.085E-01
   1    8    6     5     4    6.8845E+00  1.0310E+00   5.8535E+00  0.000E+00  0.000E+00  0.000E+00  1.04682E+03  5.735E-01  1.154E+01  2.885E-01  1.191E+00
   1    9    6     6     1    5.8535E+00  2.0382E+00   3.8153E+00  0.000E+00  0.000E+00  0.000E+00  1.04318E+03  4.556E-01  1.200E+01  6.000E-01  1.132E+00
   1   10    7     6     2    3.8153E+00  1.2734E+00   2.5419E+00  0.000E+00  0.000E+00  0.000E+00  1.03854E+03  3.543E-01  1.200E+01  6.000E-01  7.074E-01
   1   11    7     6     3    2.5419E+00  1.3166E+00   1.2253E+00  0.000E+00  0.000E+00  0.000E+00  1.03390E+03  2.588E-01  1.200E+01  6.000E-01  7.315E-01
   1   12    7     6     4    1.2253E+00  1.0286E+00   1.9674E-01  0.000E+00  0.000E+00  0.000E+00  1.02924E+03  1.442E-01  1.200E+01  6.000E-01  5.714E-01
   1   13    7     6     5    1.9674E-01 -8.0014E-01   9.9688E-01  0.000E+00  0.000E+00  0.000E+00  1.02604E+03  1.299E-01  1.200E+01  2.400E-01 -1.111E+00
   1   14    9     7     1    1.5000E+02  1.6465E+00   1.4835E+02  0.000E+00  0.000E+00  0.000E+00  1.03987E+03  2.287E+00  5.529E+01  5.593E+00  9.814E-02
   1   13    8     7     2    1.4835E+02  1.7105E+00   1.4664E+02  0.000E+00  0.000E+00  0.000E+00  1.03478E+03  2.278E+00  5.525E+01  6.147E+00  9.275E-02
   1   13    7     7     3    1.4664E+02  1.7598E+00   1.4488E+02  0.000E+00  0.000E+00  0.000E+00  1.02969E+03  2.269E+00  5.521E+01  5.584E+00  1.051E-01
   1   13    6     8     1    1.4588E+02  3.6754E-01   1.4551E+02  0.000E+00  0.000E+00  0.000E+00  1.02466E+03  2.786E+00  4.040E+01  4.117E+00  2.976E-02
   1   13    5     8     2    1.4551E+02 -4.9165E-01   1.4600E+02  0.000E+00  0.000E+00  0.000E+00  1.01841E+03  2.787E+00  4.041E+01  4.118E+00 -3.980E-02
   1   13    4     8     3    1.4600E+02 -1.3153E+00   1.4732E+02  0.000E+00  0.000E+00  0.000E+00  1.01217E+03  2.793E+00  4.050E+01  4.127E+00 -1.062E-01
   1   13    3     8     4    1.4732E+02 -1.9859E+00   1.4931E+02  0.000E+00  0.000E+00  0.000E+00  1.00593E+03  2.805E+00  4.067E+01  4.145E+00 -1.597E-01
   1   13    2     8     5    1.4931E+02 -1.9212E+00   1.5123E+02  0.000E+00  0.000E+00  0.000E+00  9.99694E+02  2.819E+00  4.087E+01  4.165E+00 -1.538E-01
   1   13    1     8     6    1.5123E+02 -1.8412E+00   1.5307E+02  0.000E+00  0.000E+00  0.000E+00  9.94707E+02  2.832E+00  4.106E+01  2.511E+00 -2.445E-01



 UBDSV3 SAVING "           GW ET" ON UNIT  61 AT TIME STEP 5, STRESS PERIOD 4
 UBDSV3 SAVING "    UZF RECHARGE" ON UNIT  61 AT TIME STEP 5, STRESS PERIOD 4
 UBDSV3 SAVING " SURFACE LEAKAGE" ON UNIT  61 AT TIME STEP 5, STRESS PERIOD 4
 UBDSV3 SAVING "       HORT+DUNN" ON UNIT  61 AT TIME STEP 5, STRESS PERIOD 4
 UBDSV3 SAVING "  STORAGE CHANGE" ON UNIT  61 AT TIME STEP 5, STRESS PERIOD 4


UNSATURATED ZONE PACKAGE VOLUMETRIC BUDGET FOR  TIME STEP     5 STRESS PERIOD    4
  ------------------------------------------------------------------------------



     CUMULATIVE VOLUMES      L**3       RATES FOR THIS TIME STEP      L**3/T
     ------------------                 ------------------------

           IN:                                      IN:
           ---                                      ---
        INFILTRATION =   508766348.8711          INFILTRATION =         169.5000

          OUT:                                     OUT:
          ----                                     ----
              UZF ET =   678449062.7148                UZF ET =         101.7152
        UZF RECHARGE =    96387493.7158          UZF RECHARGE =          18.7626

            IN - OUT =  -266070207.5596              IN - OUT =          49.0222

          STORAGE:                                 STORAGE:
          --------                                 --------
      STORAGE CHANGE =  -265945297.4076        STORAGE CHANGE =          49.0507

 PERCENT DISCREPANCY IS DIFFERENCE BETWEEN IN-OUT MINUS CHANGE IN STORAGE
 DIVIDED BY THE AVERAGE OF IN AND OUT TIMES 100

 PERCENT DISCREPANCY =          -0.00     PERCENT DISCREPANCY =          -0.02






1
  VOLUMETRIC BUDGET FOR ENTIRE MODEL AT END OF TIME STEP    5, STRESS PERIOD   4
  ------------------------------------------------------------------------------

     CUMULATIVE VOLUMES      L**3       RATES FOR THIS TIME STEP      L**3/T
     ------------------                 ------------------------

           IN:                                      IN:
           ---                                      ---
             STORAGE     =      516420.6875               STORAGE     =           0.1796
       CONSTANT HEAD     =           0.0000         CONSTANT HEAD     =           0.0000
               WELLS     =           0.0000                 WELLS     =           0.0000
     HEAD DEP BOUNDS     =     1734977.3750       HEAD DEP BOUNDS     =           0.2062
      STREAM LEAKAGE     =   343342048.0000        STREAM LEAKAGE     =          40.2876
        UZF RECHARGE     =    96387504.0000          UZF RECHARGE     =          18.7626
               GW ET     =           0.0000                 GW ET     =           0.0000
     SURFACE LEAKAGE     =           0.0000       SURFACE LEAKAGE     =           0.0000

                TOTAL IN =   441980928.0000                  TOTAL IN =          59.4360

          OUT:                                     OUT:
          ----                                     ----
             STORAGE     =    90764296.0000               STORAGE     =          24.1536
       CONSTANT HEAD     =           0.0000         CONSTANT HEAD     =           0.0000
               WELLS     =   136449696.0000                 WELLS     =          10.0000
     HEAD DEP BOUNDS     =     2359037.7500       HEAD DEP BOUNDS     =           0.2827
      STREAM LEAKAGE     =    61640368.0000        STREAM LEAKAGE     =           8.3553
        UZF RECHARGE     =           0.0000          UZF RECHARGE     =           0.0000
               GW ET     =   150765520.0000                 GW ET     =          16.6436
     SURFACE LEAKAGE     =           0.0000       SURFACE LEAKAGE     =           0.0000

               TOTAL OUT =   441978880.0000                 TOTAL OUT =          59.4352

                IN - OUT =        2048.0000                  IN - OUT =       8.2016E-04

     PERCENT DISCREPANCY =           0.00         PERCENT DISCREPANCY =           0.00






         TIME SUMMARY AT END OF TIME STEP    5 IN STRESS PERIOD    4
                    SECONDS     MINUTES      HOURS       DAYS        YEARS
                    -----------------------------------------------------------
   TIME STEP LENGTH 1.21100E+05  2018.3      33.639      1.4016     3.83743E-03
 STRESS PERIOD TIME 5.04972E+05  8416.2      140.27      5.8446     1.60016E-02
         TOTAL TIME 8.38897E+06 1.39816E+05  2330.3      97.095     0.26583    
1
 
 SOLVING FOR HEAD 
                                                   Max.-Head-Change                         Max.-Flux-Residual
  Residual-Control   Outer-Iter.   Inner-Iter.     Column Row Layer    Maximum-Head-Change  Column Row Layer    Maximum-Flux-Residual          L2-NORM 
          0                 1           2             5    3     1       0.1184195461E+00       5    3    1         0.2123221302E+01      0.4293210843E+01
          0                 2           2             5    3     1       0.6058206186E-01       5    3    1         0.1087061380E+01      0.1350614697E+01
          0                 3           2             5    3     1       0.3099126579E-01       5    3    1         0.5560491834E+00      0.6748324105E+00
          0                 4           2             5    3     1       0.1585370305E-01       5    3    1         0.2844572556E+00      0.3443430928E+00
          0                 5           2             5    3     1       0.8109971931E-02       5    3    1         0.1455149030E+00      0.1759097039E+00
          0                 6           2             5    3     1       0.4148641126E-02       5    3    1         0.7443828379E-01      0.8988685451E-01
          0                 7           2             5    3     1       0.2122221040E-02       5    3    1         0.3807875285E-01      0.4593429521E-01
          0                 8           1             5    3     1       0.1085609804E-02       5    3    1         0.1947902907E-01      0.2347426734E-01
          0                 9           1             5    3     1       0.5553354422E-03       5    3    1         0.9964379147E-02      0.1199652064E-01
          0                10           1             5    3     1       0.2840766758E-03       5    3    1         0.5097199892E-02      0.6130916317E-02
                                                   Max.-Head-Change                         Max.-Flux-Residual
  Residual-Control   Outer-Iter.   Inner-Iter.     Column Row Layer    Maximum-Head-Change  Column Row Layer    Maximum-Flux-Residual          L2-NORM 
          0                11           1             5    3     1       0.1453163065E-03       5    3    1         0.2607423834E-02      0.3133326959E-02
          0                12           1             5    3     1       0.7433472509E-04       5    3    1         0.1333798375E-02      0.1601455801E-02

    ------------------------------------------------
       NWT REQUIRED           12 OUTER ITERATIONS 
       AND A TOTAL OF         19 INNER ITERATIONS.
    ------------------------------------------------

 NO OUTPUT CONTROL FOR STRESS PERIOD    4   TIME STEP    6
 
 SOLVING FOR HEAD 
                                                   Max.-Head-Change                         Max.-Flux-Residual
  Residual-Control   Outer-Iter.   Inner-Iter.     Column Row Layer    Maximum-Head-Change  Column Row Layer    Maximum-Flux-Residual          L2-NORM 
          0                 1           2             6    3     1       0.1318419645E+00       6    3    1         0.2153113067E+01      0.4469332924E+01
          0                 2           2             6    3     1       0.6665761181E-01       6    3    1         0.1089844150E+01      0.1484726703E+01
          0                 3           2             6    3     1       0.3377898604E-01       6    3    1         0.5522359006E+00      0.7388324959E+00
          0                 4           2             6    3     1       0.1720426131E-01       6    3    1         0.2812879442E+00      0.3753209870E+00
          0                 5           2             6    3     1       0.8762125724E-02       6    3    1         0.1432632108E+00      0.1908725243E+00
          0                 6           2             6    3     1       0.4462445644E-02       6    3    1         0.7296370407E-01      0.9709693596E-01
          0                 7           2             6    3     1       0.2272635582E-02       6    3    1         0.3715942539E-01      0.4939765290E-01
          0                 8           2             6    3     1       0.1157396265E-02       6    3    1         0.1892452604E-01      0.2513177339E-01
          0                 9           1             6    3     1       0.5894282861E-03       6    3    1         0.9637771990E-02      0.1278638197E-01
          0                10           1             6    3     1       0.3001768771E-03       6    3    1         0.4908231693E-02      0.6505458740E-02
                                                   Max.-Head-Change                         Max.-Flux-Residual
  Residual-Control   Outer-Iter.   Inner-Iter.     Column Row Layer    Maximum-Head-Change  Column Row Layer    Maximum-Flux-Residual          L2-NORM 
          0                11           1             6    3     1       0.1528696637E-03       6    3    1         0.2499602326E-02      0.3309903629E-02
          0                12           1             6    3     1       0.7785087243E-04       6    3    1         0.1272959717E-02      0.1684104524E-02

    ------------------------------------------------
       NWT REQUIRED           12 OUTER ITERATIONS 
       AND A TOTAL OF         20 INNER ITERATIONS.
    ------------------------------------------------

 NO OUTPUT CONTROL FOR STRESS PERIOD    4   TIME STEP    7
 
 SOLVING FOR HEAD 
                                                   Max.-Head-Change                         Max.-Flux-Residual
  Residual-Control   Outer-Iter.   Inner-Iter.     Column Row Layer    Maximum-Head-Change  Column Row Layer    Maximum-Flux-Residual          L2-NORM 
          0                 1           2             6    3     1       0.1290990565E+00       6    3    1         0.1923756958E+01      0.4560859788E+01
          0                 2           2             6    3     1       0.6532273542E-01       6    3    1         0.9750976787E+00      0.1479702822E+01
          0                 3           2             6    3     1       0.3304299991E-01       6    3    1         0.4932244138E+00      0.7112123233E+00
          0                 4           2             6    3     1       0.1671135595E-01       6    3    1         0.2494973196E+00      0.3520289221E+00
          0                 5           2             6    3     1       0.8450434184E-02       6    3    1         0.1261774705E+00      0.1756572940E+00
          0                 6           2             6    3     1       0.4272615277E-02       6    3    1         0.6380287232E-01      0.8807476593E-01
          0                 7           2             6    3     1       0.2160059044E-02       6    3    1         0.3225868949E-01      0.4430251555E-01
          0                 8           1             6    3     1       0.1091949079E-02       6    3    1         0.1630841982E-01      0.2233424660E-01
          0                 9           1             6    3     1       0.5519638155E-03       6    3    1         0.8244097546E-02      0.1127700073E-01
          0                10           1             6    3     1       0.2789945522E-03       6    3    1         0.4167223937E-02      0.5700328629E-02
                                                   Max.-Head-Change                         Max.-Flux-Residual
  Residual-Control   Outer-Iter.   Inner-Iter.     Column Row Layer    Maximum-Head-Change  Column Row Layer    Maximum-Flux-Residual          L2-NORM 
          0                11           1             6    3     1       0.1410140154E-03       6    3    1         0.2106339144E-02      0.2883699375E-02
          0                12           1             6    3     1       0.7127120296E-04       6    3    1         0.1064613377E-02      0.1459668238E-02

    ------------------------------------------------
       NWT REQUIRED           12 OUTER ITERATIONS 
       AND A TOTAL OF         19 INNER ITERATIONS.
    ------------------------------------------------

 NO OUTPUT CONTROL FOR STRESS PERIOD    4   TIME STEP    8
 
 SOLVING FOR HEAD 
                                                   Max.-Head-Change                         Max.-Flux-Residual
  Residual-Control   Outer-Iter.   Inner-Iter.     Column Row Layer    Maximum-Head-Change  Column Row Layer    Maximum-Flux-Residual          L2-NORM 
          0                 1           2             6    3     1       0.1213876994E+00       6    3    1         0.1652499619E+01      0.4343936441E+01
          0                 2           2             6    3     1       0.6091251029E-01       6    3    1         0.8310978884E+00      0.1301808444E+01
          0                 3           2             6    3     1       0.3055409032E-01       6    3    1         0.4168631557E+00      0.6123218221E+00
          0                 4           2             6    3     1       0.1532227210E-01       6    3    1         0.2091043944E+00      0.2985579342E+00
          0                 5           2             6    3     1       0.7682313558E-02       6    3    1         0.1048564600E+00      0.1470119264E+00
          0                 6           2             6    3     1       0.3851165711E-02       6    3    1         0.5257171371E-01      0.7283486808E-01
          0                 7           2             6    3     1       0.1930351300E-02       6    3    1         0.2635368435E-01      0.3623659871E-01
          0                 8           1             6    3     1       0.9674638541E-03       6    3    1         0.1320920489E-01      0.1808175005E-01
          0                 9           1             6    3     1       0.4848371769E-03       6    3    1         0.6620149428E-02      0.9041612443E-02
          0                10           1             6    3     1       0.2429556087E-03       6    3    1         0.3317592410E-02      0.4527964319E-02
                                                   Max.-Head-Change                         Max.-Flux-Residual
  Residual-Control   Outer-Iter.   Inner-Iter.     Column Row Layer    Maximum-Head-Change  Column Row Layer    Maximum-Flux-Residual          L2-NORM 
          0                11           1             6    3     1       0.1217401155E-03       6    3    1         0.1662452460E-02      0.2269980951E-02
          0                12           1             6    3     1       0.6099878775E-04       6    3    1         0.8330137091E-03      0.1138911855E-02

    ------------------------------------------------
       NWT REQUIRED           12 OUTER ITERATIONS 
       AND A TOTAL OF         19 INNER ITERATIONS.
    ------------------------------------------------

 NO OUTPUT CONTROL FOR STRESS PERIOD    4   TIME STEP    9
 
 SOLVING FOR HEAD 
                                                   Max.-Head-Change                         Max.-Flux-Residual
  Residual-Control   Outer-Iter.   Inner-Iter.     Column Row Layer    Maximum-Head-Change  Column Row Layer    Maximum-Flux-Residual          L2-NORM 
          0                 1           2             6    3     1       0.1162343939E+00       6    3    1         0.1446810445E+01      0.4137465453E+01
          0                 2           2             6    3     1       0.5778887544E-01       6    3    1         0.7211081890E+00      0.1146211152E+01
          0                 3           2             6    3     1       0.2871820526E-01       6    3    1         0.3583420050E+00      0.5311847765E+00
          0                 4           2             6    3     1       0.1426749577E-01       6    3    1         0.1780805632E+00      0.2564295345E+00
          0                 5           2             6    3     1       0.7086686396E-02       6    3    1         0.8846724388E-01      0.1249723514E+00
          0                 6           2             6    3     1       0.3519342824E-02       6    3    1         0.4394044581E-01      0.6128090607E-01
          0                 7           2             6    3     1       0.1747497671E-02       6    3    1         0.2182078483E-01      0.3017794389E-01
          0                 8           1             6    3     1       0.8675999536E-03       6    3    1         0.1083466113E-01      0.1490731890E-01
          0                 9           1             6    3     1       0.4307047576E-03       6    3    1         0.5379103086E-02      0.7380564157E-02
          0                10           1             6    3     1       0.2137986095E-03       6    3    1         0.2670318933E-02      0.3660102840E-02
                                                   Max.-Head-Change                         Max.-Flux-Residual
  Residual-Control   Outer-Iter.   Inner-Iter.     Column Row Layer    Maximum-Head-Change  Column Row Layer    Maximum-Flux-Residual          L2-NORM 
          0                11           1             6    3     1       0.1061210980E-03       6    3    1         0.1325509099E-02      0.1817236917E-02
          0                12           1             6    3     1       0.5267151915E-04       6    3    1         0.6579229051E-03      0.9032299169E-03

    ------------------------------------------------
       NWT REQUIRED           12 OUTER ITERATIONS 
       AND A TOTAL OF         19 INNER ITERATIONS.
    ------------------------------------------------

 OUTPUT CONTROL FOR STRESS PERIOD    4   TIME STEP   10
    PRINT BUDGET
    SAVE BUDGET

            WELLS   PERIOD    4   STEP  10
 WELL      1   LAYER   1   ROW     6   COL     4   RATE    -1.00000    
 WELL      2   LAYER   1   ROW     6   COL     5   RATE    -1.00000    
 WELL      3   LAYER   1   ROW     7   COL     4   RATE    -1.00000    
 WELL      4   LAYER   1   ROW     7   COL     5   RATE    -1.00000    
 WELL      5   LAYER   1   ROW     8   COL     4   RATE    -1.00000    
 WELL      6   LAYER   1   ROW     8   COL     5   RATE    -1.00000    
 WELL      7   LAYER   1   ROW     9   COL     4   RATE    -1.00000    
 WELL      8   LAYER   1   ROW     9   COL     5   RATE    -1.00000    
 WELL      9   LAYER   1   ROW    10   COL     4   RATE    -1.00000    
 WELL     10   LAYER   1   ROW    10   COL     5   RATE    -1.00000    

  HEAD DEP BOUNDS   PERIOD    4   STEP    10
 BOUNDARY      1   LAYER   1   ROW    13   COL     1   RATE   -0.283453    
 BOUNDARY      2   LAYER   1   ROW    14   COL     9   RATE    0.206212    



 STREAM LISTING     PERIOD      4   STEP       10

 LAYER ROW COL. STREAM  RCH.  FLOW INTO     FLOW TO   FLOW OUT OF   OVRLND.     DIRECT     STREAM       STREAM     STREAM     STREAM   STREAMBED  STREAMBED
                SEG.NO.  NO.  STRM. RCH.    AQUIFER    STRM. RCH.    RUNOFF     PRECIP       ET          HEAD       DEPTH      WIDTH   CONDCTNC.   GRADIENT

   1    1    1     1     1    2.5000E+01  1.1190E+00   2.3881E+01  0.000E+00  0.000E+00  0.000E+00  1.09422E+03  1.172E+00  1.295E+01  5.828E-01  6.400E-01
   1    2    2     1     2    2.3881E+01  2.5810E+00   2.1300E+01  0.000E+00  0.000E+00  0.000E+00  1.08920E+03  1.143E+00  1.257E+01  8.798E-01  9.778E-01
   1    3    3     1     3    2.1300E+01  2.9376E+00   1.8362E+01  0.000E+00  0.000E+00  0.000E+00  1.08352E+03  1.097E+00  1.195E+01  7.170E-01  1.366E+00
   1    3    4     1     4    1.8362E+01  2.4970E+00   1.5865E+01  0.000E+00  0.000E+00  0.000E+00  1.07846E+03  1.051E+00  1.110E+01  6.163E-01  1.350E+00
   1    4    5     2     1    5.8654E+00  2.6778E+00   3.1876E+00  0.000E+00  0.000E+00  0.000E+00  1.07237E+03  4.331E-01  1.200E+01  7.800E-01  1.144E+00
   1    5    6     2     2    3.1876E+00  1.9687E+00   1.2189E+00  0.000E+00  0.000E+00  0.000E+00  1.06679E+03  2.812E-01  1.200E+01  6.000E-01  1.094E+00
   1    6    6     2     3    1.2189E+00  1.2189E+00   0.0000E+00  0.000E+00  0.000E+00  0.000E+00  1.06184E+03  4.435E-02  1.200E+01  6.000E-01  1.015E+00
   1    7    6     2     4    0.0000E+00  0.0000E+00   0.0000E+00  0.000E+00  0.000E+00  0.000E+00  1.05708E+03  0.000E+00  1.200E+01  6.000E-01  1.000E+00
   1    8    6     2     5    0.0000E+00  0.0000E+00   0.0000E+00  0.000E+00  0.000E+00  0.000E+00  1.05236E+03  0.000E+00  1.200E+01  6.000E-01  1.000E+00
   1    3    5     3     1    1.0000E+01  7.6346E-03   9.9924E+00  0.000E+00  0.000E+00  0.000E+00  1.07555E+03  1.909E+00  9.636E+00  7.227E-01  5.282E-03
   1    3    6     3     2    9.9924E+00  2.4273E-04   9.9921E+00  0.000E+00  0.000E+00  0.000E+00  1.07264E+03  1.727E+00  8.909E+00  6.682E-01  1.816E-04
   1    3    7     3     3    9.9921E+00  4.7542E-01   9.5167E+00  0.000E+00  0.000E+00  0.000E+00  1.06987E+03  1.555E+00  8.218E+00  5.547E-01  4.285E-01
   1    4    8     3     4    9.5167E+00  1.5769E+00   7.9398E+00  0.000E+00  0.000E+00  0.000E+00  1.06682E+03  1.364E+00  7.455E+00  6.709E-01  1.175E+00
   1    5    8     3     5    7.9398E+00  1.5171E+00   6.4227E+00  0.000E+00  0.000E+00  0.000E+00  1.06362E+03  1.164E+00  6.655E+00  4.991E-01  1.520E+00
   1    6    8     3     6    6.4227E+00  5.5980E-01   5.8629E+00  0.000E+00  0.000E+00  0.000E+00  1.06158E+03  1.036E+00  6.145E+00  1.844E-01  1.518E+00
   1    5   10     4     1    1.0000E+01  9.0525E-01   9.0947E+00  0.000E+00  0.000E+00  0.000E+00  1.07835E+03  6.210E-01  1.000E+01  2.500E-01  1.207E+00
   1    5    9     4     2    9.0947E+00  1.7835E+00   7.3113E+00  0.000E+00  0.000E+00  0.000E+00  1.07148E+03  5.670E-01  1.000E+01  5.000E-01  1.189E+00
   1    6    8     4     3    7.3113E+00  1.2257E+00   6.0855E+00  0.000E+00  0.000E+00  0.000E+00  1.06368E+03  5.021E-01  1.000E+01  3.500E-01  1.167E+00
   1    6    8     5     1    1.1948E+01  4.4079E-01   1.1508E+01  0.000E+00  0.000E+00  0.000E+00  1.05871E+03  7.102E-01  1.665E+01  6.659E-01  2.207E-01
   1    7    7     5     2    1.1508E+01  1.7020E+00   9.8057E+00  0.000E+00  0.000E+00  0.000E+00  1.05419E+03  6.867E-01  1.572E+01  7.858E-01  7.219E-01
   1    8    7     5     3    9.8057E+00  1.3572E+00   8.4486E+00  0.000E+00  0.000E+00  0.000E+00  1.04990E+03  6.505E-01  1.432E+01  5.012E-01  9.025E-01
   1    8    6     5     4    8.4486E+00  1.1837E+00   7.2648E+00  0.000E+00  0.000E+00  0.000E+00  1.04687E+03  6.172E-01  1.309E+01  3.272E-01  1.206E+00
   1    9    6     6     1    7.2648E+00  2.0590E+00   5.2059E+00  0.000E+00  0.000E+00  0.000E+00  1.04326E+03  5.307E-01  1.200E+01  6.000E-01  1.144E+00
   1   10    7     6     2    5.2059E+00  1.3006E+00   3.9053E+00  0.000E+00  0.000E+00  0.000E+00  1.03862E+03  4.396E-01  1.200E+01  6.000E-01  7.226E-01
   1   11    7     6     3    3.9053E+00  1.2871E+00   2.6182E+00  0.000E+00  0.000E+00  0.000E+00  1.03400E+03  3.598E-01  1.200E+01  6.000E-01  7.151E-01
   1   12    7     6     4    2.6182E+00  1.0008E+00   1.6174E+00  0.000E+00  0.000E+00  0.000E+00  1.02937E+03  2.776E-01  1.200E+01  6.000E-01  5.560E-01
   1   13    7     6     5    1.6174E+00 -7.7707E-01   2.3945E+00  0.000E+00  0.000E+00  0.000E+00  1.02618E+03  2.688E-01  1.200E+01  2.400E-01 -1.079E+00
   1   14    9     7     1    1.5000E+02  1.6454E+00   1.4835E+02  0.000E+00  0.000E+00  0.000E+00  1.03987E+03  2.287E+00  5.529E+01  5.593E+00  9.807E-02
   1   13    8     7     2    1.4835E+02  1.7056E+00   1.4665E+02  0.000E+00  0.000E+00  0.000E+00  1.03478E+03  2.278E+00  5.525E+01  6.147E+00  9.249E-02
   1   13    7     7     3    1.4665E+02  1.5249E+00   1.4512E+02  0.000E+00  0.000E+00  0.000E+00  1.02969E+03  2.269E+00  5.521E+01  5.584E+00  9.103E-02
   1   13    6     8     1    1.4752E+02  2.8757E-01   1.4723E+02  0.000E+00  0.000E+00  0.000E+00  1.02467E+03  2.798E+00  4.057E+01  4.135E+00  2.318E-02
   1   13    5     8     2    1.4723E+02 -7.3316E-01   1.4796E+02  0.000E+00  0.000E+00  0.000E+00  1.01842E+03  2.800E+00  4.060E+01  4.137E+00 -5.907E-02
   1   13    4     8     3    1.4796E+02 -1.5470E+00   1.4951E+02  0.000E+00  0.000E+00  0.000E+00  1.01218E+03  2.808E+00  4.071E+01  4.149E+00 -1.243E-01
   1   13    3     8     4    1.4951E+02 -2.1968E+00   1.5171E+02  0.000E+00  0.000E+00  0.000E+00  1.00595E+03  2.821E+00  4.091E+01  4.168E+00 -1.757E-01
   1   13    2     8     5    1.5171E+02 -1.8924E+00   1.5360E+02  0.000E+00  0.000E+00  0.000E+00  9.99710E+02  2.835E+00  4.111E+01  4.190E+00 -1.506E-01
   1   13    1     8     6    1.5360E+02 -1.8582E+00   1.5546E+02  0.000E+00  0.000E+00  0.000E+00  9.94723E+02  2.848E+00  4.130E+01  2.525E+00 -2.453E-01



 UBDSV3 SAVING "           GW ET" ON UNIT  61 AT TIME STEP 10, STRESS PERIOD 4
 UBDSV3 SAVING "    UZF RECHARGE" ON UNIT  61 AT TIME STEP 10, STRESS PERIOD 4
 UBDSV3 SAVING " SURFACE LEAKAGE" ON UNIT  61 AT TIME STEP 10, STRESS PERIOD 4
 UBDSV3 SAVING "       HORT+DUNN" ON UNIT  61 AT TIME STEP 10, STRESS PERIOD 4
 UBDSV3 SAVING "  STORAGE CHANGE" ON UNIT  61 AT TIME STEP 10, STRESS PERIOD 4


UNSATURATED ZONE PACKAGE VOLUMETRIC BUDGET FOR  TIME STEP    10 STRESS PERIOD    4
  ------------------------------------------------------------------------------



     CUMULATIVE VOLUMES      L**3       RATES FOR THIS TIME STEP      L**3/T
     ------------------                 ------------------------

           IN:                                      IN:
           ---                                      ---
        INFILTRATION =   646614228.5352          INFILTRATION =         169.5000

          OUT:                                     OUT:
          ----                                     ----
              UZF ET =   761205130.5615                UZF ET =         101.7560
        UZF RECHARGE =   118457417.5291          UZF RECHARGE =          27.6707

            IN - OUT =  -233048319.5555              IN - OUT =          40.0733

          STORAGE:                                 STORAGE:
          --------                                 --------
      STORAGE CHANGE =  -232874778.8177        STORAGE CHANGE =          40.1241

 PERCENT DISCREPANCY IS DIFFERENCE BETWEEN IN-OUT MINUS CHANGE IN STORAGE
 DIVIDED BY THE AVERAGE OF IN AND OUT TIMES 100

 PERCENT DISCREPANCY =          -0.00     PERCENT DISCREPANCY =          -0.03






1
  VOLUMETRIC BUDGET FOR ENTIRE MODEL AT END OF TIME STEP   10, STRESS PERIOD   4
  ------------------------------------------------------------------------------

     CUMULATIVE VOLUMES      L**3       RATES FOR THIS TIME STEP      L**3/T
     ------------------                 ------------------------

           IN:                                      IN:
           ---                                      ---
             STORAGE     =      641695.4375               STORAGE     =           0.1388
       CONSTANT HEAD     =           0.0000         CONSTANT HEAD     =           0.0000
               WELLS     =           0.0000                 WELLS     =           0.0000
     HEAD DEP BOUNDS     =     1902684.7500       HEAD DEP BOUNDS     =           0.2062
      STREAM LEAKAGE     =   375230272.0000        STREAM LEAKAGE     =          38.5461
        UZF RECHARGE     =   118457432.0000          UZF RECHARGE     =          27.6707
               GW ET     =           0.0000                 GW ET     =           0.0000
     SURFACE LEAKAGE     =           0.0000       SURFACE LEAKAGE     =           0.0000

                TOTAL IN =   496232096.0000                  TOTAL IN =          66.5618

          OUT:                                     OUT:
          ----                                     ----
             STORAGE     =   115861240.0000               STORAGE     =          30.1862
       CONSTANT HEAD     =           0.0000         CONSTANT HEAD     =           0.0000
               WELLS     =   144582304.0000                 WELLS     =          10.0000
     HEAD DEP BOUNDS     =     2589334.0000       HEAD DEP BOUNDS     =           0.2835
      STREAM LEAKAGE     =    68687640.0000        STREAM LEAKAGE     =           9.0046
        UZF RECHARGE     =           0.0000          UZF RECHARGE     =           0.0000
               GW ET     =   164508736.0000                 GW ET     =          17.0868
     SURFACE LEAKAGE     =           0.0000       SURFACE LEAKAGE     =           0.0000

               TOTAL OUT =   496229248.0000                 TOTAL OUT =          66.5611

                IN - OUT =        2848.0000                  IN - OUT =       7.1716E-04

     PERCENT DISCREPANCY =           0.00         PERCENT DISCREPANCY =           0.00






         TIME SUMMARY AT END OF TIME STEP   10 IN STRESS PERIOD    4
                    SECONDS     MINUTES      HOURS       DAYS        YEARS
                    -----------------------------------------------------------
   TIME STEP LENGTH 1.95033E+05  3250.6      54.176      2.2573     6.18023E-03
 STRESS PERIOD TIME 1.31823E+06  21971.      366.18      15.257     4.17723E-02
         TOTAL TIME 9.20223E+06 1.53371E+05  2556.2      106.51     0.29160    
1
 
 SOLVING FOR HEAD 
                                                   Max.-Head-Change                         Max.-Flux-Residual
  Residual-Control   Outer-Iter.   Inner-Iter.     Column Row Layer    Maximum-Head-Change  Column Row Layer    Maximum-Flux-Residual          L2-NORM 
          0                 1           2             6    3     1       0.1111800044E+00       6    3    1         0.1266069582E+01      0.3978892230E+01
          0                 2           2             6    3     1       0.5519136740E-01       6    3    1         0.6302365551E+00      0.1010807610E+01
          0                 3           2             6    3     1       0.2747788184E-01       6    3    1         0.3137831740E+00      0.4622863945E+00
          0                 4           2             6    3     1       0.1367546345E-01       6    3    1         0.1562217763E+00      0.2225195190E+00
          0                 5           2             6    3     1       0.6804300301E-02       6    3    1         0.7774473778E-01      0.1082702389E+00
          0                 6           2             6    3     1       0.3384778258E-02       6    3    1         0.3868080075E-01      0.5303823328E-01
          0                 7           2             6    3     1       0.1683447003E-02       6    3    1         0.1924096975E-01      0.2610222357E-01
          0                 8           1             6    3     1       0.8371530900E-03       6    3    1         0.9569381116E-02      0.1288841130E-01
          0                 9           1             6    3     1       0.4162534321E-03       6    3    1         0.4758598168E-02      0.6378819064E-02
          0                10           1             6    3     1       0.2069510166E-03       6    3    1         0.2366047882E-02      0.3162286037E-02
                                                   Max.-Head-Change                         Max.-Flux-Residual
  Residual-Control   Outer-Iter.   Inner-Iter.     Column Row Layer    Maximum-Head-Change  Column Row Layer    Maximum-Flux-Residual          L2-NORM 
          0                11           1             6    3     1       0.1028825804E-03       6    3    1         0.1176322221E-02      0.1569557773E-02
          0                12           1             6    3     1       0.5114310932E-04       6    3    1         0.5847831748E-03      0.7796848965E-03

    ------------------------------------------------
       NWT REQUIRED           12 OUTER ITERATIONS 
       AND A TOTAL OF         19 INNER ITERATIONS.
    ------------------------------------------------

 NO OUTPUT CONTROL FOR STRESS PERIOD    4   TIME STEP   11
 
 SOLVING FOR HEAD 
                                                   Max.-Head-Change                         Max.-Flux-Residual
  Residual-Control   Outer-Iter.   Inner-Iter.     Column Row Layer    Maximum-Head-Change  Column Row Layer    Maximum-Flux-Residual          L2-NORM 
          0                 1           2             6    3     1       0.1033503628E+00       6    3    1         0.1077118706E+01      0.3877303225E+01
          0                 2           2             6    3     1       0.5098357888E-01       6    3    1         0.5330271643E+00      0.8967416026E+00
          0                 3           2             6    3     1       0.2513009734E-01       6    3    1         0.2627817325E+00      0.3953775360E+00
          0                 4           2             6    3     1       0.1238240674E-01       6    3    1         0.1295224383E+00      0.1869762517E+00
          0                 5           2             6    3     1       0.6099354440E-02       6    3    1         0.6381592864E-01      0.8970662003E-01
          0                 6           2             6    3     1       0.3003694836E-02       6    3    1         0.3143310187E-01      0.4338272686E-01
          0                 7           2             6    3     1       0.1478902522E-02       6    3    1         0.1547896911E-01      0.2109080611E-01
          0                 8           1             6    3     1       0.7280312660E-03       6    3    1         0.7620992388E-02      0.1029184751E-01
          0                 9           1             6    3     1       0.3583435555E-03       6    3    1         0.3751544583E-02      0.5035732869E-02
          0                10           1             6    3     1       0.1763593621E-03       6    3    1         0.1846501938E-02      0.2468800231E-02
          0                11           1             6    3     1       0.8678714942E-04       6    3    1         0.9087416584E-03      0.1212050413E-02

    ------------------------------------------------
       NWT REQUIRED           11 OUTER ITERATIONS 
       AND A TOTAL OF         18 INNER ITERATIONS.
    ------------------------------------------------

 NO OUTPUT CONTROL FOR STRESS PERIOD    4   TIME STEP   12
 
 SOLVING FOR HEAD 
                                                   Max.-Head-Change                         Max.-Flux-Residual
  Residual-Control   Outer-Iter.   Inner-Iter.     Column Row Layer    Maximum-Head-Change  Column Row Layer    Maximum-Flux-Residual          L2-NORM 
          0                 1           2             7    3     1       0.9735356909E-01       7   12    1         0.9568961997E+00      0.3721095475E+01
          0                 2           2             6    3     1       0.4493137073E-01       6    3    1         0.4303973016E+00      0.7534601715E+00
          0                 3           2             6    3     1       0.2190856954E-01       6    3    1         0.2098894990E+00      0.3193022937E+00
          0                 4           2             6    3     1       0.1067744823E-01       6    3    1         0.1023401156E+00      0.1486139932E+00
          0                 5           2             6    3     1       0.5201929503E-02       6    3    1         0.4987228682E-01      0.7031189134E-01
          0                 6           2             6    3     1       0.2533588141E-02       6    3    1         0.2429590353E-01      0.3356048899E-01
          0                 7           2             6    3     1       0.1233685747E-02       6    3    1         0.1183270300E-01      0.1611189660E-01
          0                 8           1             6    3     1       0.6006033748E-03       6    3    1         0.5761502390E-02      0.7767276126E-02
          0                 9           1             6    3     1       0.2923480641E-03       6    3    1         0.2804819810E-02      0.3755811075E-02
          0                10           1             6    3     1       0.1422833169E-03       6    3    1         0.1365229935E-02      0.1820050835E-02
          0                11           1             6    3     1       0.6924033655E-04       6    3    1         0.6644310322E-03      0.8834161533E-03

    ------------------------------------------------
       NWT REQUIRED           11 OUTER ITERATIONS 
       AND A TOTAL OF         18 INNER ITERATIONS.
    ------------------------------------------------

 NO OUTPUT CONTROL FOR STRESS PERIOD    4   TIME STEP   13
 
 SOLVING FOR HEAD 
                                                   Max.-Head-Change                         Max.-Flux-Residual
  Residual-Control   Outer-Iter.   Inner-Iter.     Column Row Layer    Maximum-Head-Change  Column Row Layer    Maximum-Flux-Residual          L2-NORM 
          0                 1           2             7    3     1       0.9208168439E-01       4    7    1         0.9388431024E+00      0.3585167878E+01
          0                 2           2             6    3     1       0.4109884181E-01       6    3    1         0.3609425109E+00      0.6478164776E+00
          0                 3           2             6    3     1       0.1992000306E-01       6    3    1         0.1749833159E+00      0.2667074495E+00
          0                 4           2             6    3     1       0.9649408614E-02       6    3    1         0.8480833324E-01      0.1231576401E+00
          0                 5           2             6    3     1       0.4672300869E-02       6    3    1         0.4107745514E-01      0.5779710453E-01
          0                 6           2             6    3     1       0.2261601116E-02       6    3    1         0.1988870192E-01      0.2735885223E-01
          0                 7           1             6    3     1       0.1094414363E-02       6    3    1         0.9626483412E-02      0.1302636324E-01
          0                 8           1             6    3     1       0.5294781847E-03       6    3    1         0.4658154385E-02      0.6228826052E-02
          0                 9           1             6    3     1       0.2561127014E-03       6    3    1         0.2253531996E-02      0.2987813892E-02
          0                10           1             6    3     1       0.1238638113E-03       6    3    1         0.1090016334E-02      0.1436491278E-02
          0                11           1             6    3     1       0.5989621474E-04       6    3    1         0.5271506919E-03      0.6918088666E-03

    ------------------------------------------------
       NWT REQUIRED           11 OUTER ITERATIONS 
       AND A TOTAL OF         17 INNER ITERATIONS.
    ------------------------------------------------

 NO OUTPUT CONTROL FOR STRESS PERIOD    4   TIME STEP   14
 
 SOLVING FOR HEAD 
                                                   Max.-Head-Change                         Max.-Flux-Residual
  Residual-Control   Outer-Iter.   Inner-Iter.     Column Row Layer    Maximum-Head-Change  Column Row Layer    Maximum-Flux-Residual          L2-NORM 
          0                 1           2             7    3     1       0.8711656464E-01       4    7    1         0.9351040514E+00      0.3471617498E+01
          0                 2           2             6    3     1       0.3561072594E-01       6    3    1         0.2868986297E+00      0.5488720858E+00
          0                 3           2             6    3     1       0.1705016768E-01       6    3    1         0.1374116872E+00      0.2136141242E+00
          0                 4           2             6    3     1       0.8157753148E-02       6    3    1         0.6578743834E-01      0.9688932337E-01
          0                 5           2             6    3     1       0.3901172720E-02       6    3    1         0.3147227362E-01      0.4473888965E-01
          0                 6           2             6    3     1       0.1864865996E-02       6    3    1         0.1504942075E-01      0.2084865130E-01
          0                 7           1             6    3     1       0.8911658503E-03       6    3    1         0.7193552544E-02      0.9777747995E-02
          0                 8           1             6    3     1       0.4257469407E-03       6    3    1         0.3437406405E-02      0.4607639337E-02
          0                 9           1             6    3     1       0.2033507464E-03       6    3    1         0.1642117334E-02      0.2179082834E-02
          0                10           1             6    3     1       0.9710848185E-04       6    3    1         0.7842994396E-03      0.1033278074E-02

    ------------------------------------------------
       NWT REQUIRED           10 OUTER ITERATIONS 
       AND A TOTAL OF         16 INNER ITERATIONS.
    ------------------------------------------------

 OUTPUT CONTROL FOR STRESS PERIOD    4   TIME STEP   15
    PRINT BUDGET
    PRINT HEAD FOR ALL LAYERS
    SAVE HEAD FOR ALL LAYERS
    SAVE BUDGET

            WELLS   PERIOD    4   STEP  15
 WELL      1   LAYER   1   ROW     6   COL     4   RATE    -1.00000    
 WELL      2   LAYER   1   ROW     6   COL     5   RATE    -1.00000    
 WELL      3   LAYER   1   ROW     7   COL     4   RATE    -1.00000    
 WELL      4   LAYER   1   ROW     7   COL     5   RATE    -1.00000    
 WELL      5   LAYER   1   ROW     8   COL     4   RATE    -1.00000    
 WELL      6   LAYER   1   ROW     8   COL     5   RATE    -1.00000    
 WELL      7   LAYER   1   ROW     9   COL     4   RATE    -1.00000    
 WELL      8   LAYER   1   ROW     9   COL     5   RATE    -1.00000    
 WELL      9   LAYER   1   ROW    10   COL     4   RATE    -1.00000    
 WELL     10   LAYER   1   ROW    10   COL     5   RATE    -1.00000    

  HEAD DEP BOUNDS   PERIOD    4   STEP    15
 BOUNDARY      1   LAYER   1   ROW    13   COL     1   RATE   -0.286425    
 BOUNDARY      2   LAYER   1   ROW    14   COL     9   RATE    0.206197    



 STREAM LISTING     PERIOD      4   STEP       15

 LAYER ROW COL. STREAM  RCH.  FLOW INTO     FLOW TO   FLOW OUT OF   OVRLND.     DIRECT     STREAM       STREAM     STREAM     STREAM   STREAMBED  STREAMBED
                SEG.NO.  NO.  STRM. RCH.    AQUIFER    STRM. RCH.    RUNOFF     PRECIP       ET          HEAD       DEPTH      WIDTH   CONDCTNC.   GRADIENT

   1    1    1     1     1    2.5000E+01  1.1119E+00   2.3888E+01  0.000E+00  0.000E+00  0.000E+00  1.09422E+03  1.172E+00  1.295E+01  5.828E-01  6.360E-01
   1    2    2     1     2    2.3888E+01  2.5685E+00   2.1320E+01  0.000E+00  0.000E+00  0.000E+00  1.08920E+03  1.143E+00  1.257E+01  8.800E-01  9.729E-01
   1    3    3     1     3    2.1320E+01  2.9392E+00   1.8380E+01  0.000E+00  0.000E+00  0.000E+00  1.08352E+03  1.098E+00  1.196E+01  7.173E-01  1.366E+00
   1    3    4     1     4    1.8380E+01  2.4984E+00   1.5882E+01  0.000E+00  0.000E+00  0.000E+00  1.07846E+03  1.052E+00  1.111E+01  6.166E-01  1.351E+00
   1    4    5     2     1    5.8819E+00  2.6786E+00   3.2034E+00  0.000E+00  0.000E+00  0.000E+00  1.07237E+03  4.340E-01  1.200E+01  7.800E-01  1.145E+00
   1    5    6     2     2    3.2034E+00  1.9694E+00   1.2340E+00  0.000E+00  0.000E+00  0.000E+00  1.06679E+03  2.824E-01  1.200E+01  6.000E-01  1.094E+00
   1    6    6     2     3    1.2340E+00  1.2340E+00   0.0000E+00  0.000E+00  0.000E+00  0.000E+00  1.06184E+03  4.468E-02  1.200E+01  6.000E-01  1.015E+00
   1    7    6     2     4    0.0000E+00  0.0000E+00   0.0000E+00  0.000E+00  0.000E+00  0.000E+00  1.05708E+03  0.000E+00  1.200E+01  6.000E-01  1.000E+00
   1    8    6     2     5    0.0000E+00  0.0000E+00   0.0000E+00  0.000E+00  0.000E+00  0.000E+00  1.05236E+03  0.000E+00  1.200E+01  6.000E-01  1.000E+00
   1    3    5     3     1    1.0000E+01 -5.3595E-01   1.0536E+01  0.000E+00  0.000E+00  0.000E+00  1.07555E+03  1.909E+00  9.636E+00  7.227E-01 -3.708E-01
   1    3    6     3     2    1.0536E+01 -6.0866E-01   1.1145E+01  0.000E+00  0.000E+00  0.000E+00  1.07264E+03  1.727E+00  8.909E+00  6.682E-01 -4.555E-01
   1    3    7     3     3    1.1145E+01  1.8198E-02   1.1126E+01  0.000E+00  0.000E+00  0.000E+00  1.06987E+03  1.555E+00  8.218E+00  5.547E-01  1.640E-02
   1    4    8     3     4    1.1126E+01  1.5768E+00   9.5496E+00  0.000E+00  0.000E+00  0.000E+00  1.06682E+03  1.364E+00  7.455E+00  6.709E-01  1.175E+00
   1    5    8     3     5    9.5496E+00  1.5006E+00   8.0490E+00  0.000E+00  0.000E+00  0.000E+00  1.06362E+03  1.164E+00  6.655E+00  4.991E-01  1.503E+00
   1    6    8     3     6    8.0490E+00  5.5980E-01   7.4892E+00  0.000E+00  0.000E+00  0.000E+00  1.06158E+03  1.036E+00  6.145E+00  1.844E-01  1.518E+00
   1    5   10     4     1    1.0000E+01  9.0525E-01   9.0947E+00  0.000E+00  0.000E+00  0.000E+00  1.07835E+03  6.210E-01  1.000E+01  2.500E-01  1.207E+00
   1    5    9     4     2    9.0947E+00  1.7835E+00   7.3113E+00  0.000E+00  0.000E+00  0.000E+00  1.07148E+03  5.670E-01  1.000E+01  5.000E-01  1.189E+00
   1    6    8     4     3    7.3113E+00  1.2257E+00   6.0855E+00  0.000E+00  0.000E+00  0.000E+00  1.06368E+03  5.021E-01  1.000E+01  3.500E-01  1.167E+00
   1    6    8     5     1    1.3575E+01  4.5852E-01   1.3116E+01  0.000E+00  0.000E+00  0.000E+00  1.05874E+03  7.430E-01  1.799E+01  7.195E-01  2.124E-01
   1    7    7     5     2    1.3116E+01  1.7693E+00   1.1347E+01  0.000E+00  0.000E+00  0.000E+00  1.05422E+03  7.207E-01  1.707E+01  8.536E-01  6.909E-01
   1    8    7     5     3    1.1347E+01  1.4373E+00   9.9098E+00  0.000E+00  0.000E+00  0.000E+00  1.04994E+03  6.861E-01  1.569E+01  5.492E-01  8.723E-01
   1    8    6     5     4    9.9098E+00  1.3187E+00   8.5911E+00  0.000E+00  0.000E+00  0.000E+00  1.04690E+03  6.535E-01  1.444E+01  3.609E-01  1.218E+00
   1    9    6     6     1    8.5911E+00  2.0561E+00   6.5350E+00  0.000E+00  0.000E+00  0.000E+00  1.04332E+03  5.959E-01  1.200E+01  6.000E-01  1.142E+00
   1   10    7     6     2    6.5350E+00  1.3036E+00   5.2314E+00  0.000E+00  0.000E+00  0.000E+00  1.03869E+03  5.125E-01  1.200E+01  6.000E-01  7.242E-01
   1   11    7     6     3    5.2314E+00  1.2128E+00   4.0186E+00  0.000E+00  0.000E+00  0.000E+00  1.03408E+03  4.436E-01  1.200E+01  6.000E-01  6.738E-01
   1   12    7     6     4    4.0186E+00  9.1500E-01   3.1036E+00  0.000E+00  0.000E+00  0.000E+00  1.02947E+03  3.792E-01  1.200E+01  6.000E-01  5.083E-01
   1   13    7     6     5    3.1036E+00 -7.7265E-01   3.8763E+00  0.000E+00  0.000E+00  0.000E+00  1.02628E+03  3.747E-01  1.200E+01  2.400E-01 -1.073E+00
   1   14    9     7     1    1.5000E+02  1.6431E+00   1.4836E+02  0.000E+00  0.000E+00  0.000E+00  1.03987E+03  2.287E+00  5.529E+01  5.593E+00  9.793E-02
   1   13    8     7     2    1.4836E+02  1.6936E+00   1.4666E+02  0.000E+00  0.000E+00  0.000E+00  1.03478E+03  2.278E+00  5.525E+01  6.147E+00  9.184E-02
   1   13    7     7     3    1.4666E+02  1.0439E+00   1.4562E+02  0.000E+00  0.000E+00  0.000E+00  1.02969E+03  2.271E+00  5.522E+01  5.585E+00  6.231E-02
   1   13    6     8     1    1.4950E+02 -1.1839E-01   1.4961E+02  0.000E+00  0.000E+00  0.000E+00  1.02469E+03  2.814E+00  4.080E+01  4.158E+00 -9.492E-03
   1   13    5     8     2    1.4961E+02 -9.2009E-01   1.5053E+02  0.000E+00  0.000E+00  0.000E+00  1.01844E+03  2.817E+00  4.085E+01  4.163E+00 -7.367E-02
   1   13    4     8     3    1.5053E+02 -1.7402E+00   1.5227E+02  0.000E+00  0.000E+00  0.000E+00  1.01220E+03  2.827E+00  4.099E+01  4.177E+00 -1.389E-01
   1   13    3     8     4    1.5227E+02 -2.3996E+00   1.5467E+02  0.000E+00  0.000E+00  0.000E+00  1.00597E+03  2.841E+00  4.120E+01  4.198E+00 -1.905E-01
   1   13    2     8     5    1.5467E+02 -1.8965E+00   1.5657E+02  0.000E+00  0.000E+00  0.000E+00  9.99731E+02  2.856E+00  4.141E+01  4.220E+00 -1.498E-01
   1   13    1     8     6    1.5657E+02 -2.0176E+00   1.5859E+02  0.000E+00  0.000E+00  0.000E+00  9.94744E+02  2.869E+00  4.161E+01  2.544E+00 -2.644E-01



 UBDSV3 SAVING "           GW ET" ON UNIT  61 AT TIME STEP 15, STRESS PERIOD 4
 UBDSV3 SAVING "    UZF RECHARGE" ON UNIT  61 AT TIME STEP 15, STRESS PERIOD 4
 UBDSV3 SAVING " SURFACE LEAKAGE" ON UNIT  61 AT TIME STEP 15, STRESS PERIOD 4
 UBDSV3 SAVING "       HORT+DUNN" ON UNIT  61 AT TIME STEP 15, STRESS PERIOD 4
 UBDSV3 SAVING "  STORAGE CHANGE" ON UNIT  61 AT TIME STEP 15, STRESS PERIOD 4


UNSATURATED ZONE PACKAGE VOLUMETRIC BUDGET FOR  TIME STEP    15 STRESS PERIOD    4
  ------------------------------------------------------------------------------



     CUMULATIVE VOLUMES      L**3       RATES FOR THIS TIME STEP      L**3/T
     ------------------                 ------------------------

           IN:                                      IN:
           ---                                      ---
        INFILTRATION =   868619630.7227          INFILTRATION =         169.5000

          OUT:                                     OUT:
          ----                                     ----
              UZF ET =   876869704.1338                UZF ET =          88.7844
        UZF RECHARGE =   154003920.1185          UZF RECHARGE =          26.2950

            IN - OUT =  -162253993.5296              IN - OUT =          54.4207

          STORAGE:                                 STORAGE:
          --------                                 --------
      STORAGE CHANGE =  -162026471.0735        STORAGE CHANGE =          54.4663

 PERCENT DISCREPANCY IS DIFFERENCE BETWEEN IN-OUT MINUS CHANGE IN STORAGE
 DIVIDED BY THE AVERAGE OF IN AND OUT TIMES 100

 PERCENT DISCREPANCY =          -0.01     PERCENT DISCREPANCY =          -0.03






1
              HEAD IN LAYER 1 AT END OF TIME STEP 15 IN STRESS PERIOD 4
  ---------------------------------------------------------------------------

           1       2       3       4       5       6       7       8       9      10
 ...................................................................................
   1  1092.31 1087.71 6999.00 6999.00 6999.00 6999.00 6999.00 6999.00 6999.00 6999.00
   2  1087.75 1086.28 1078.21 6999.00 6999.00 1069.58 1069.33 1068.72 6999.00 6999.00
   3  6999.00 1074.83 1078.76 1074.12 1076.29 1073.55 1069.84 1065.98 6999.00 6999.00
   4  1065.90 1065.86 1064.76 1063.43 1066.26 1061.25 1059.66 1064.47 1062.11 6999.00
   5  1062.54 1059.28 1055.56 1053.16 1055.44 1060.41 1057.06 1060.61 1064.45 1065.60
   6  1058.74 1054.05 1049.42 1038.20 1041.56 1052.93 1053.85 1058.11 1057.65 1063.18
   7  1055.87 1048.99 1043.95 1029.46 1033.41 1045.44 1052.15 1052.54 1053.32 6999.00
   8  6999.00 1043.02 1039.22 1025.60 1029.20 1042.81 1047.32 1047.33 1049.79 6999.00
   9  6999.00 1037.09 1034.40 1021.80 1025.92 1039.90 1040.01 1041.45 1045.48 6999.00
  10  6999.00 1031.24 1029.89 1019.91 1022.61 1032.10 1036.52 1037.15 1041.77 1046.49
  11  6999.00 1023.73 1024.19 1023.75 1025.43 1028.79 1032.06 1033.72 1037.83 6999.00
  12  1006.70 1013.39 1015.95 1019.51 1022.35 1025.33 1027.95 1030.38 1035.20 6999.00
  13   995.54 1000.18 1006.54 1012.62 1018.66 1024.72 1029.50 1034.50 1035.90 6999.00
  14  6999.00 1012.45 1017.23 1021.78 1025.62 1028.78 1031.38 1034.69 1039.57 6999.00
  15  6999.00 6999.00 1026.37 1028.58 1031.19 1032.91 6999.00 6999.00 6999.00 6999.00
1
              HEAD IN LAYER 2 AT END OF TIME STEP 15 IN STRESS PERIOD 4
  ---------------------------------------------------------------------------

           1       2       3       4       5       6       7       8       9      10
 ...................................................................................
   1  1091.12 1087.16 6999.00 6999.00 6999.00 6999.00 6999.00 6999.00 6999.00 6999.00
   2  1087.51 1080.81 1075.41 6999.00 6999.00 1069.11 1068.92 1068.39 6999.00 6999.00
   3  6999.00 1072.70 1068.16 1064.47 1064.44 1065.41 1065.77 1065.60 6999.00 6999.00
   4  1065.20 1065.13 1062.28 1058.91 1057.57 1057.12 1058.45 1061.66 1061.73 6999.00
   5  1061.82 1058.56 1055.43 1053.39 1053.16 1053.53 1053.91 1055.83 1059.87 1063.82
   6  1058.06 1053.45 1049.75 1048.11 1048.40 1049.74 1051.12 1053.08 1056.79 1062.85
   7  1055.16 1048.46 1044.60 1043.19 1043.90 1045.62 1047.67 1050.24 1053.19 6999.00
   8  6999.00 1042.65 1039.79 1038.74 1039.61 1041.42 1043.38 1047.05 1049.48 6999.00
   9  6999.00 1036.65 1034.89 1034.42 1035.46 1037.28 1038.83 1041.31 1045.15 6999.00
  10  6999.00 1030.80 1030.27 1030.67 1031.91 1033.64 1035.00 1037.02 1041.34 1046.49
  11  6999.00 1023.86 1024.92 1027.33 1028.99 1030.77 1032.25 1033.91 1037.52 6999.00
  12  1006.99 1014.69 1019.73 1023.55 1026.21 1028.48 1030.16 1031.65 1035.15 6999.00
  13  1000.35 1007.77 1015.73 1020.98 1024.49 1027.40 1029.93 1032.61 1035.43 6999.00
  14  6999.00 1012.73 1017.56 1022.02 1025.65 1028.64 1031.09 1034.28 1036.92 6999.00
  15  6999.00 6999.00 1026.37 1028.58 1030.73 1032.45 6999.00 6999.00 6999.00 6999.00

 HEAD WILL BE SAVED ON UNIT   58 AT END OF TIME STEP   15, STRESS PERIOD    4
1
  VOLUMETRIC BUDGET FOR ENTIRE MODEL AT END OF TIME STEP   15, STRESS PERIOD   4
  ------------------------------------------------------------------------------

     CUMULATIVE VOLUMES      L**3       RATES FOR THIS TIME STEP      L**3/T
     ------------------                 ------------------------

           IN:                                      IN:
           ---                                      ---
             STORAGE     =      772164.9375               STORAGE     =       8.9467E-02
       CONSTANT HEAD     =           0.0000         CONSTANT HEAD     =           0.0000
               WELLS     =           0.0000                 WELLS     =           0.0000
     HEAD DEP BOUNDS     =     2172762.7500       HEAD DEP BOUNDS     =           0.2062
      STREAM LEAKAGE     =   424792352.0000        STREAM LEAKAGE     =          37.4216
        UZF RECHARGE     =   154003952.0000          UZF RECHARGE     =          26.2950
               GW ET     =           0.0000                 GW ET     =           0.0000
     SURFACE LEAKAGE     =           0.0000       SURFACE LEAKAGE     =           0.0000

                TOTAL IN =   581741248.0000                  TOTAL IN =          64.0122

          OUT:                                     OUT:
          ----                                     ----
             STORAGE     =   151563120.0000               STORAGE     =          25.1372
       CONSTANT HEAD     =           0.0000         CONSTANT HEAD     =           0.0000
               WELLS     =   157679968.0000                 WELLS     =          10.0000
     HEAD DEP BOUNDS     =     2963144.5000       HEAD DEP BOUNDS     =           0.2864
      STREAM LEAKAGE     =    82220256.0000        STREAM LEAKAGE     =          11.0096
        UZF RECHARGE     =           0.0000          UZF RECHARGE     =           0.0000
               GW ET     =   187310944.0000                 GW ET     =          17.5781
     SURFACE LEAKAGE     =           0.0000       SURFACE LEAKAGE     =           0.0000

               TOTAL OUT =   581737408.0000                 TOTAL OUT =          64.0114

                IN - OUT =        3840.0000                  IN - OUT =       8.2397E-04

     PERCENT DISCREPANCY =           0.00         PERCENT DISCREPANCY =           0.00






         TIME SUMMARY AT END OF TIME STEP   15 IN STRESS PERIOD    4
                    SECONDS     MINUTES      HOURS       DAYS        YEARS
                    -----------------------------------------------------------
   TIME STEP LENGTH 3.14103E+05  5235.0      87.251      3.6354     9.95332E-03
 STRESS PERIOD TIME 2.62800E+06  43800.      730.00      30.417     8.32763E-02
         TOTAL TIME 1.05120E+07 1.75200E+05  2920.0      121.67     0.33311    
1
1
                            STRESS PERIOD NO.    5, LENGTH =   2628000.    
                            -----------------------------------------------

                              NUMBER OF TIME STEPS =    15

                               MULTIPLIER FOR DELT =     1.100

                            INITIAL TIME STEP SIZE =   82713.07    

 WELL NO.  LAYER   ROW   COL   STRESS RATE         
 --------------------------------------------------
      1      1      6      4      -3.000    
      2      1      6      5      -3.000    
      3      1      7      4      -3.000    
      4      1      7      5      -3.000    
      5      1      8      4      -3.000    
      6      1      8      5      -3.000    
      7      1      9      4      -3.000    
      8      1      9      5      -3.000    
      9      1     10      4      -3.000    
     10      1     10      5      -3.000    

     10 WELLS

 REUSING NON-PARAMETER GHB CELLS FROM LAST STRESS PERIOD

      2 GHB CELLS

 REUSING STREAM SEGMENT DATA FROM LAST STRESS PERIOD



            AREAL INFILTRATION RATE
 READING ON UNIT   19 WITH FORMAT: (10F4.0)            

            1           2           3           4           5           6           7           8           9          10
 ........................................................................................................................
   1   5.0000E-09  1.0000E-08   0.000       0.000       0.000       0.000       0.000       0.000       0.000       0.000    
   2   1.0000E-08  5.0000E-09  1.0000E-08   0.000       0.000      4.0000E-08  4.0000E-08  2.5000E-08   0.000       0.000    
   3    0.000      2.5000E-08  5.0000E-09  5.0000E-09  4.0000E-08  4.0000E-08  2.5000E-08  2.5000E-08   0.000       0.000    
   4   4.0000E-08  2.5000E-08  5.0000E-09  5.0000E-09  5.0000E-09  5.0000E-09  5.0000E-09  5.0000E-09  1.0000E-08   0.000    
   5   4.0000E-08  2.5000E-08  5.0000E-09  5.0000E-09  5.0000E-09  5.0000E-09  5.0000E-09  5.0000E-09  5.0000E-09  5.0000E-09
   6   4.0000E-08  2.5000E-08  2.5000E-08  1.0000E-08  1.0000E-08  5.0000E-09  5.0000E-09  5.0000E-09  5.0000E-09  2.5000E-08
   7   4.0000E-08  2.5000E-08  2.5000E-08  1.0000E-08  1.0000E-08  5.0000E-09  5.0000E-09  1.0000E-08  1.0000E-08   0.000    
   8    0.000      2.5000E-08  2.5000E-08  1.0000E-08  1.0000E-08  5.0000E-09  5.0000E-09  1.0000E-08  2.5000E-08   0.000    
   9    0.000      2.5000E-08  2.5000E-08  1.0000E-08  1.0000E-08  5.0000E-09  5.0000E-09  1.0000E-08  2.5000E-08   0.000    
  10    0.000      2.5000E-08  2.5000E-08  1.0000E-08  1.0000E-08  5.0000E-09  5.0000E-09  1.0000E-08  2.5000E-08  4.0000E-08
  11    0.000      5.0000E-09  5.0000E-09  5.0000E-09  5.0000E-09  5.0000E-09  5.0000E-09  1.0000E-08  2.5000E-08   0.000    
  12   5.0000E-09  5.0000E-09  5.0000E-09  5.0000E-09  5.0000E-09  5.0000E-09  5.0000E-09  5.0000E-09  1.0000E-08   0.000    
  13   5.0000E-09  5.0000E-09  1.0000E-08  1.0000E-08  1.0000E-08  1.0000E-08  1.0000E-08  5.0000E-09  5.0000E-09   0.000    
  14    0.000      1.0000E-08  2.5000E-08  2.5000E-08  2.5000E-08  2.5000E-08  2.5000E-08  1.0000E-08  5.0000E-09   0.000    
  15    0.000       0.000      4.0000E-08  4.0000E-08  4.0000E-08  4.0000E-08   0.000       0.000       0.000       0.000    

USING ET RATE FROM PREVIOUS STRESS PERIOD. CURRENT PERIOD IS:       5

 USING ET EXTINCTION DEPTH FROM PREVIOUS STRESS PERIOD. CURRENT PERIOD IS:       5

 USING EXTINCTION WATER CONTENT FROM PREVIOUS STRESS PERIOD. CURRENT PERIOD IS:       5
 
 SOLVING FOR HEAD 
                                                   Max.-Head-Change                         Max.-Flux-Residual
  Residual-Control   Outer-Iter.   Inner-Iter.     Column Row Layer    Maximum-Head-Change  Column Row Layer    Maximum-Flux-Residual          L2-NORM 
          0                 1           2             5   10     1      -0.2163736460E-01       5   10    1        -0.1194508302E+01      0.4066991701E+01
          0                 2           2             7    3     1       0.9008201713E-02       7    3    1         0.2541286858E+00      0.4814439107E+00
          0                 3           2             6    3     1       0.4583376549E-02       6    3    1         0.1297977968E+00      0.2020764268E+00
          0                 4           2             6    3     1       0.2404853620E-02       6    3    1         0.6811805679E-01      0.1003254057E+00
          0                 5           2             6    3     1       0.1261634303E-02       6    3    1         0.3573945699E-01      0.5070214594E-01
          0                 6           1             6    3     1       0.6618084887E-03       6    3    1         0.1874929979E-01      0.2589874770E-01
          0                 7           1             6    3     1       0.3471312690E-03       6    3    1         0.9835051344E-02      0.1333267432E-01
          0                 8           1             6    3     1       0.1820641134E-03       6    3    1         0.5158605266E-02      0.6903383855E-02
          0                 9           1             6    3     1       0.9548377551E-04       6    3    1         0.2705566054E-02      0.3589687108E-02

    ------------------------------------------------
       NWT REQUIRED            9 OUTER ITERATIONS 
       AND A TOTAL OF         14 INNER ITERATIONS.
    ------------------------------------------------

 NO OUTPUT CONTROL FOR STRESS PERIOD    5   TIME STEP    1
 
 SOLVING FOR HEAD 
                                                   Max.-Head-Change                         Max.-Flux-Residual
  Residual-Control   Outer-Iter.   Inner-Iter.     Column Row Layer    Maximum-Head-Change  Column Row Layer    Maximum-Flux-Residual          L2-NORM 
          0                 1           2             5   10     1      -0.2468197215E-01       5   10    1        -0.1239019705E+01      0.4167569921E+01
          0                 2           2             7    3     1       0.9419422155E-02       7    3    1         0.2421868154E+00      0.5275073511E+00
          0                 3           2             6    3     1       0.4648597759E-02       6    3    1         0.1201236519E+00      0.1647399410E+00
          0                 4           2             6    3     1       0.2431902679E-02       6    3    1         0.6285566112E-01      0.7895657969E-01
          0                 5           2             6    3     1       0.1272067222E-02       6    3    1         0.3288146749E-01      0.3895322579E-01
          0                 6           1             6    3     1       0.6653136061E-03       6    3    1         0.1719914692E-01      0.1948693735E-01
          0                 7           1             6    3     1       0.3479396141E-03       6    3    1         0.8995302018E-02      0.9855156939E-02
          0                 8           1             6    3     1       0.1819487599E-03       6    3    1         0.4704215822E-02      0.5026690152E-02
          0                 9           1             6    3     1       0.9514093480E-04       6    3    1         0.2459956598E-02      0.2580867048E-02

    ------------------------------------------------
       NWT REQUIRED            9 OUTER ITERATIONS 
       AND A TOTAL OF         14 INNER ITERATIONS.
    ------------------------------------------------

 NO OUTPUT CONTROL FOR STRESS PERIOD    5   TIME STEP    2
 
 SOLVING FOR HEAD 
                                                   Max.-Head-Change                         Max.-Flux-Residual
  Residual-Control   Outer-Iter.   Inner-Iter.     Column Row Layer    Maximum-Head-Change  Column Row Layer    Maximum-Flux-Residual          L2-NORM 
          0                 1           2             5    3     1      -0.7410945237E-01       5    3    1        -0.1751280912E+01      0.4479931736E+01
          0                 2           2             5    3     1      -0.2589844571E-01       5    3    1        -0.6116887908E+00      0.7711954744E+00
          0                 3           2             5    3     1      -0.9450995852E-02       5    3    1        -0.2232390098E+00      0.2481220522E+00
          0                 4           1             5    3     1      -0.3619999861E-02       5    3    1        -0.8550330566E-01      0.9699350589E-01
          0                 5           1             5    3     1      -0.1386598021E-02       5    3    1        -0.3275051132E-01      0.3835380126E-01
          0                 6           1             5    3     1      -0.5311336456E-03       5    3    1        -0.1254476057E-01      0.1528017341E-01
          0                 7           1             5    3     1      -0.2034554666E-03       5    3    1        -0.4805272916E-02      0.6137104337E-02
          0                 8           1             5    3     1      -0.7793791657E-04       5    3    1        -0.1840713540E-02      0.2486363802E-02

    ------------------------------------------------
       NWT REQUIRED            8 OUTER ITERATIONS 
       AND A TOTAL OF         11 INNER ITERATIONS.
    ------------------------------------------------

 NO OUTPUT CONTROL FOR STRESS PERIOD    5   TIME STEP    3
 
 SOLVING FOR HEAD 
                                                   Max.-Head-Change                         Max.-Flux-Residual
  Residual-Control   Outer-Iter.   Inner-Iter.     Column Row Layer    Maximum-Head-Change  Column Row Layer    Maximum-Flux-Residual          L2-NORM 
          0                 1           2             5    3     1      -0.1057427058E+00       5    3    1        -0.2278049788E+01      0.4909137354E+01
          0                 2           2             5    3     1      -0.3248010381E-01       5    3    1        -0.6995476945E+00      0.1004641437E+01
          0                 3           2             6    3     1      -0.9815499898E-02       6    3    1        -0.2112309287E+00      0.2699001776E+00
          0                 4           2             6    3     1      -0.3709567376E-02       6    3    1        -0.7990864988E-01      0.9065647456E-01
          0                 5           2             6    3     1      -0.1401815154E-02       6    3    1        -0.3019251057E-01      0.3494316420E-01
          0                 6           1             6    3     1      -0.5296680720E-03       6    3    1        -0.1140970611E-01      0.1372922246E-01
          0                 7           1             6    3     1      -0.2001022716E-03       6    3    1        -0.4310953058E-02      0.5442774477E-02
          0                 8           1             6    3     1      -0.7558307683E-04       6    3    1        -0.1628575737E-02      0.2178599036E-02

    ------------------------------------------------
       NWT REQUIRED            8 OUTER ITERATIONS 
       AND A TOTAL OF         13 INNER ITERATIONS.
    ------------------------------------------------

 NO OUTPUT CONTROL FOR STRESS PERIOD    5   TIME STEP    4
 
 SOLVING FOR HEAD 
                                                   Max.-Head-Change                         Max.-Flux-Residual
  Residual-Control   Outer-Iter.   Inner-Iter.     Column Row Layer    Maximum-Head-Change  Column Row Layer    Maximum-Flux-Residual          L2-NORM 
          0                 1           2             5    3     1      -0.1269730329E+00       5    3    1        -0.2495816142E+01      0.5059850146E+01
          0                 2           2             6    3     1      -0.3379988482E-01       6    3    1        -0.6634938134E+00      0.9292233030E+00
          0                 3           2             6    3     1      -0.1145268677E-01       6    3    1        -0.2250478566E+00      0.2325162778E+00
          0                 4           2             6    3     1      -0.3880751243E-02       6    3    1        -0.7623385442E-01      0.7639185467E-01
          0                 5           2             6    3     1      -0.1315014658E-02       6    3    1        -0.2583342907E-01      0.2585479967E-01
          0                 6           1             6    3     1      -0.4456027322E-03       6    3    1        -0.8753775788E-02      0.8758953447E-02
          0                 7           1             6    3     1      -0.1509961742E-03       6    3    1        -0.2966288546E-02      0.2968099263E-02
          0                 8           1             6    3     1      -0.5116632538E-04       6    3    1        -0.1005152079E-02      0.1006582622E-02

    ------------------------------------------------
       NWT REQUIRED            8 OUTER ITERATIONS 
       AND A TOTAL OF         13 INNER ITERATIONS.
    ------------------------------------------------

 OUTPUT CONTROL FOR STRESS PERIOD    5   TIME STEP    5
    PRINT BUDGET
    SAVE BUDGET

            WELLS   PERIOD    5   STEP   5
 WELL      1   LAYER   1   ROW     6   COL     4   RATE    -3.00000    
 WELL      2   LAYER   1   ROW     6   COL     5   RATE    -3.00000    
 WELL      3   LAYER   1   ROW     7   COL     4   RATE    -3.00000    
 WELL      4   LAYER   1   ROW     7   COL     5   RATE    -3.00000    
 WELL      5   LAYER   1   ROW     8   COL     4   RATE    -3.00000    
 WELL      6   LAYER   1   ROW     8   COL     5   RATE    -3.00000    
 WELL      7   LAYER   1   ROW     9   COL     4   RATE    -3.00000    
 WELL      8   LAYER   1   ROW     9   COL     5   RATE    -3.00000    
 WELL      9   LAYER   1   ROW    10   COL     4   RATE    -3.00000    
 WELL     10   LAYER   1   ROW    10   COL     5   RATE    -3.00000    

  HEAD DEP BOUNDS   PERIOD    5   STEP     5
 BOUNDARY      1   LAYER   1   ROW    13   COL     1   RATE   -0.287102    
 BOUNDARY      2   LAYER   1   ROW    14   COL     9   RATE    0.206240    



 STREAM LISTING     PERIOD      5   STEP        5

 LAYER ROW COL. STREAM  RCH.  FLOW INTO     FLOW TO   FLOW OUT OF   OVRLND.     DIRECT     STREAM       STREAM     STREAM     STREAM   STREAMBED  STREAMBED
                SEG.NO.  NO.  STRM. RCH.    AQUIFER    STRM. RCH.    RUNOFF     PRECIP       ET          HEAD       DEPTH      WIDTH   CONDCTNC.   GRADIENT

   1    1    1     1     1    2.5000E+01  1.1105E+00   2.3889E+01  0.000E+00  0.000E+00  0.000E+00  1.09422E+03  1.172E+00  1.295E+01  5.828E-01  6.351E-01
   1    2    2     1     2    2.3889E+01  2.5665E+00   2.1323E+01  0.000E+00  0.000E+00  0.000E+00  1.08920E+03  1.143E+00  1.257E+01  8.800E-01  9.721E-01
   1    3    3     1     3    2.1323E+01  2.9395E+00   1.8383E+01  0.000E+00  0.000E+00  0.000E+00  1.08352E+03  1.098E+00  1.196E+01  7.174E-01  1.366E+00
   1    3    4     1     4    1.8383E+01  2.4987E+00   1.5885E+01  0.000E+00  0.000E+00  0.000E+00  1.07846E+03  1.052E+00  1.111E+01  6.167E-01  1.351E+00
   1    4    5     2     1    5.8848E+00  2.6787E+00   3.2061E+00  0.000E+00  0.000E+00  0.000E+00  1.07237E+03  4.342E-01  1.200E+01  7.800E-01  1.145E+00
   1    5    6     2     2    3.2061E+00  1.9695E+00   1.2366E+00  0.000E+00  0.000E+00  0.000E+00  1.06679E+03  2.826E-01  1.200E+01  6.000E-01  1.094E+00
   1    6    6     2     3    1.2366E+00  1.2366E+00   0.0000E+00  0.000E+00  0.000E+00  0.000E+00  1.06184E+03  4.474E-02  1.200E+01  6.000E-01  1.015E+00
   1    7    6     2     4    0.0000E+00  0.0000E+00   0.0000E+00  0.000E+00  0.000E+00  0.000E+00  1.05708E+03  0.000E+00  1.200E+01  6.000E-01  1.000E+00
   1    8    6     2     5    0.0000E+00  0.0000E+00   0.0000E+00  0.000E+00  0.000E+00  0.000E+00  1.05236E+03  0.000E+00  1.200E+01  6.000E-01  1.000E+00
   1    3    5     3     1    1.0000E+01 -2.5542E-01   1.0255E+01  0.000E+00  0.000E+00  0.000E+00  1.07555E+03  1.909E+00  9.636E+00  7.227E-01 -1.767E-01
   1    3    6     3     2    1.0255E+01 -4.7417E-01   1.0730E+01  0.000E+00  0.000E+00  0.000E+00  1.07264E+03  1.727E+00  8.909E+00  6.682E-01 -3.548E-01
   1    3    7     3     3    1.0730E+01 -6.8915E-02   1.0799E+01  0.000E+00  0.000E+00  0.000E+00  1.06987E+03  1.555E+00  8.218E+00  5.547E-01 -6.212E-02
   1    4    8     3     4    1.0799E+01  1.5734E+00   9.2251E+00  0.000E+00  0.000E+00  0.000E+00  1.06682E+03  1.364E+00  7.455E+00  6.709E-01  1.173E+00
   1    5    8     3     5    9.2251E+00  1.4957E+00   7.7294E+00  0.000E+00  0.000E+00  0.000E+00  1.06362E+03  1.164E+00  6.655E+00  4.991E-01  1.498E+00
   1    6    8     3     6    7.7294E+00  5.5980E-01   7.1696E+00  0.000E+00  0.000E+00  0.000E+00  1.06158E+03  1.036E+00  6.145E+00  1.844E-01  1.518E+00
   1    5   10     4     1    1.0000E+01  9.0525E-01   9.0947E+00  0.000E+00  0.000E+00  0.000E+00  1.07835E+03  6.210E-01  1.000E+01  2.500E-01  1.207E+00
   1    5    9     4     2    9.0947E+00  1.7835E+00   7.3113E+00  0.000E+00  0.000E+00  0.000E+00  1.07148E+03  5.670E-01  1.000E+01  5.000E-01  1.189E+00
   1    6    8     4     3    7.3113E+00  1.2257E+00   6.0855E+00  0.000E+00  0.000E+00  0.000E+00  1.06368E+03  5.021E-01  1.000E+01  3.500E-01  1.167E+00
   1    6    8     5     1    1.3255E+01  4.3492E-01   1.2820E+01  0.000E+00  0.000E+00  0.000E+00  1.05874E+03  7.370E-01  1.774E+01  7.095E-01  2.043E-01
   1    7    7     5     2    1.2820E+01  1.7054E+00   1.1115E+01  0.000E+00  0.000E+00  0.000E+00  1.05422E+03  7.152E-01  1.685E+01  8.425E-01  6.748E-01
   1    8    7     5     3    1.1115E+01  1.3922E+00   9.7225E+00  0.000E+00  0.000E+00  0.000E+00  1.04993E+03  6.813E-01  1.551E+01  5.427E-01  8.552E-01
   1    8    6     5     4    9.7225E+00  1.3017E+00   8.4208E+00  0.000E+00  0.000E+00  0.000E+00  1.04690E+03  6.491E-01  1.427E+01  3.567E-01  1.216E+00
   1    9    6     6     1    8.4208E+00  2.0377E+00   6.3831E+00  0.000E+00  0.000E+00  0.000E+00  1.04332E+03  5.883E-01  1.200E+01  6.000E-01  1.132E+00
   1   10    7     6     2    6.3831E+00  1.2858E+00   5.0972E+00  0.000E+00  0.000E+00  0.000E+00  1.03869E+03  5.050E-01  1.200E+01  6.000E-01  7.143E-01
   1   11    7     6     3    5.0972E+00  1.1689E+00   3.9283E+00  0.000E+00  0.000E+00  0.000E+00  1.03407E+03  4.372E-01  1.200E+01  6.000E-01  6.494E-01
   1   12    7     6     4    3.9283E+00  8.6499E-01   3.0633E+00  0.000E+00  0.000E+00  0.000E+00  1.02947E+03  3.751E-01  1.200E+01  6.000E-01  4.806E-01
   1   13    7     6     5    3.0633E+00 -7.7675E-01   3.8401E+00  0.000E+00  0.000E+00  0.000E+00  1.02628E+03  3.722E-01  1.200E+01  2.400E-01 -1.079E+00
   1   14    9     7     1    1.5000E+02  1.6494E+00   1.4835E+02  0.000E+00  0.000E+00  0.000E+00  1.03987E+03  2.287E+00  5.529E+01  5.593E+00  9.831E-02
   1   13    8     7     2    1.4835E+02  1.6939E+00   1.4666E+02  0.000E+00  0.000E+00  0.000E+00  1.03478E+03  2.278E+00  5.525E+01  6.147E+00  9.185E-02
   1   13    7     7     3    1.4666E+02  9.6334E-01   1.4569E+02  0.000E+00  0.000E+00  0.000E+00  1.02969E+03  2.271E+00  5.522E+01  5.585E+00  5.750E-02
   1   13    6     8     1    1.4953E+02 -2.0127E-01   1.4973E+02  0.000E+00  0.000E+00  0.000E+00  1.02469E+03  2.814E+00  4.081E+01  4.158E+00 -1.613E-02
   1   13    5     8     2    1.4973E+02 -9.6043E-01   1.5070E+02  0.000E+00  0.000E+00  0.000E+00  1.01844E+03  2.818E+00  4.087E+01  4.164E+00 -7.688E-02
   1   13    4     8     3    1.5070E+02 -1.7800E+00   1.5248E+02  0.000E+00  0.000E+00  0.000E+00  1.01220E+03  2.828E+00  4.101E+01  4.179E+00 -1.420E-01
   1   13    3     8     4    1.5248E+02 -2.4394E+00   1.5491E+02  0.000E+00  0.000E+00  0.000E+00  1.00597E+03  2.843E+00  4.122E+01  4.200E+00 -1.936E-01
   1   13    2     8     5    1.5491E+02 -1.9110E+00   1.5683E+02  0.000E+00  0.000E+00  0.000E+00  9.99733E+02  2.858E+00  4.144E+01  4.223E+00 -1.509E-01
   1   13    1     8     6    1.5683E+02 -2.0595E+00   1.5888E+02  0.000E+00  0.000E+00  0.000E+00  9.94746E+02  2.871E+00  4.163E+01  2.546E+00 -2.697E-01



 UBDSV3 SAVING "           GW ET" ON UNIT  61 AT TIME STEP 5, STRESS PERIOD 5
 UBDSV3 SAVING "    UZF RECHARGE" ON UNIT  61 AT TIME STEP 5, STRESS PERIOD 5
 UBDSV3 SAVING " SURFACE LEAKAGE" ON UNIT  61 AT TIME STEP 5, STRESS PERIOD 5
 UBDSV3 SAVING "       HORT+DUNN" ON UNIT  61 AT TIME STEP 5, STRESS PERIOD 5
 UBDSV3 SAVING "  STORAGE CHANGE" ON UNIT  61 AT TIME STEP 5, STRESS PERIOD 5


UNSATURATED ZONE PACKAGE VOLUMETRIC BUDGET FOR  TIME STEP     5 STRESS PERIOD    5
  ------------------------------------------------------------------------------



     CUMULATIVE VOLUMES      L**3       RATES FOR THIS TIME STEP      L**3/T
     ------------------                 ------------------------

           IN:                                      IN:
           ---                                      ---
        INFILTRATION =   890017801.6006          INFILTRATION =          42.3750

          OUT:                                     OUT:
          ----                                     ----
              UZF ET =   921298391.0947                UZF ET =          79.1808
        UZF RECHARGE =   163284880.4001          UZF RECHARGE =          13.8516

            IN - OUT =  -194565469.8943              IN - OUT =         -50.6574

          STORAGE:                                 STORAGE:
          --------                                 --------
      STORAGE CHANGE =  -194333473.3087        STORAGE CHANGE =         -50.6521

 PERCENT DISCREPANCY IS DIFFERENCE BETWEEN IN-OUT MINUS CHANGE IN STORAGE
 DIVIDED BY THE AVERAGE OF IN AND OUT TIMES 100

 PERCENT DISCREPANCY =          -0.01     PERCENT DISCREPANCY =          -0.01






1
  VOLUMETRIC BUDGET FOR ENTIRE MODEL AT END OF TIME STEP    5, STRESS PERIOD   5
  ------------------------------------------------------------------------------

     CUMULATIVE VOLUMES      L**3       RATES FOR THIS TIME STEP      L**3/T
     ------------------                 ------------------------

           IN:                                      IN:
           ---                                      ---
             STORAGE     =     8453117.0000               STORAGE     =          18.1042
       CONSTANT HEAD     =           0.0000         CONSTANT HEAD     =           0.0000
               WELLS     =           0.0000                 WELLS     =           0.0000
     HEAD DEP BOUNDS     =     2276890.2500       HEAD DEP BOUNDS     =           0.2062
      STREAM LEAKAGE     =   443586976.0000        STREAM LEAKAGE     =          37.0418
        UZF RECHARGE     =   163284912.0000          UZF RECHARGE     =          13.8516
               GW ET     =           0.0000                 GW ET     =           0.0000
     SURFACE LEAKAGE     =           0.0000       SURFACE LEAKAGE     =           0.0000

                TOTAL IN =   617601920.0000                  TOTAL IN =          69.2038

          OUT:                                     OUT:
          ----                                     ----
             STORAGE     =   157399216.0000               STORAGE     =           8.4623
       CONSTANT HEAD     =           0.0000         CONSTANT HEAD     =           0.0000
               WELLS     =   172829120.0000                 WELLS     =          30.0000
     HEAD DEP BOUNDS     =     3107996.7500       HEAD DEP BOUNDS     =           0.2871
      STREAM LEAKAGE     =    87816088.0000        STREAM LEAKAGE     =          10.9267
        UZF RECHARGE     =           0.0000          UZF RECHARGE     =           0.0000
               GW ET     =   196445344.0000                 GW ET     =          19.5280
     SURFACE LEAKAGE     =           0.0000       SURFACE LEAKAGE     =           0.0000

               TOTAL OUT =   617597824.0000                 TOTAL OUT =          69.2041

                IN - OUT =        4096.0000                  IN - OUT =      -3.1281E-04

     PERCENT DISCREPANCY =           0.00         PERCENT DISCREPANCY =          -0.00






         TIME SUMMARY AT END OF TIME STEP    5 IN STRESS PERIOD    5
                    SECONDS     MINUTES      HOURS       DAYS        YEARS
                    -----------------------------------------------------------
   TIME STEP LENGTH 1.21100E+05  2018.3      33.639      1.4016     3.83743E-03
 STRESS PERIOD TIME 5.04972E+05  8416.2      140.27      5.8446     1.60016E-02
         TOTAL TIME 1.10170E+07 1.83616E+05  3060.3      127.51     0.34911    
1
 
 SOLVING FOR HEAD 
                                                   Max.-Head-Change                         Max.-Flux-Residual
  Residual-Control   Outer-Iter.   Inner-Iter.     Column Row Layer    Maximum-Head-Change  Column Row Layer    Maximum-Flux-Residual          L2-NORM 
          0                 1           2             5    3     1      -0.1463619545E+00       5    3    1        -0.2626363689E+01      0.5170042839E+01
          0                 2           2             6    3     1      -0.3532107906E-01       6    3    1        -0.6331076174E+00      0.7971492105E+00
          0                 3           2             6    3     1      -0.6015664999E-02       6    3    1        -0.1078239557E+00      0.1302027343E+00
          0                 4           1             7    3     1      -0.1198926045E-02       7    3    1        -0.2137066497E-01      0.2427582184E-01
          0                 5           1             7    3     1      -0.3993104573E-03       7    3    1        -0.7110626539E-02      0.7199641356E-02
          0                 6           1             7    3     1      -0.1329962211E-03       7    3    1        -0.2368746206E-02      0.2381263380E-02
          0                 7           1             7    3     1      -0.4429682723E-04       7    3    1        -0.7889195854E-03      0.7929070924E-03

    ------------------------------------------------
       NWT REQUIRED            7 OUTER ITERATIONS 
       AND A TOTAL OF         10 INNER ITERATIONS.
    ------------------------------------------------

 NO OUTPUT CONTROL FOR STRESS PERIOD    5   TIME STEP    6
 
 SOLVING FOR HEAD 
                                                   Max.-Head-Change                         Max.-Flux-Residual
  Residual-Control   Outer-Iter.   Inner-Iter.     Column Row Layer    Maximum-Head-Change  Column Row Layer    Maximum-Flux-Residual          L2-NORM 
          0                 1           2             5    3     1      -0.1632139593E+00       5    3    1        -0.2675046507E+01      0.5295134260E+01
          0                 2           2             6    3     1      -0.2940349194E-01       6    3    1        -0.4814610108E+00      0.6761911938E+00
          0                 3           2             7    3     1      -0.4796602882E-02       7    3    1        -0.7805951964E-01      0.9803739390E-01
          0                 4           1             7    3     1      -0.1441212022E-02       7    3    1        -0.2342592654E-01      0.2429723574E-01
          0                 5           1             7    3     1      -0.4330549798E-03       7    3    1        -0.7040605677E-02      0.7157465124E-02
          0                 6           1             7    3     1      -0.1301273504E-03       7    3    1        -0.2115484295E-02      0.2136013544E-02
          0                 7           1             7    3     1      -0.3910203812E-04       7    3    1        -0.6356854261E-03      0.6427052891E-03

    ------------------------------------------------
       NWT REQUIRED            7 OUTER ITERATIONS 
       AND A TOTAL OF         10 INNER ITERATIONS.
    ------------------------------------------------

 NO OUTPUT CONTROL FOR STRESS PERIOD    5   TIME STEP    7
 
 SOLVING FOR HEAD 
                                                   Max.-Head-Change                         Max.-Flux-Residual
  Residual-Control   Outer-Iter.   Inner-Iter.     Column Row Layer    Maximum-Head-Change  Column Row Layer    Maximum-Flux-Residual          L2-NORM 
          0                 1           2             5    3     1      -0.1768044146E+00       5    3    1        -0.2647966346E+01      0.5337089600E+01
          0                 2           2             7    3     1      -0.1840871343E-01       7    3    1        -0.2730140857E+00      0.5588771140E+00
          0                 3           2             7    3     1      -0.4864984256E-02       7    3    1        -0.7226318296E-01      0.8443097281E-01
          0                 4           1             7    3     1      -0.1285837831E-02       7    3    1        -0.1908742846E-01      0.1991307416E-01
          0                 5           1             7    3     1      -0.3398713565E-03       7    3    1        -0.5045653852E-02      0.5164995757E-02
          0                 6           1             7    3     1      -0.8983718081E-04       7    3    1        -0.1333654730E-02      0.1353525563E-02

    ------------------------------------------------
       NWT REQUIRED            6 OUTER ITERATIONS 
       AND A TOTAL OF          9 INNER ITERATIONS.
    ------------------------------------------------

 NO OUTPUT CONTROL FOR STRESS PERIOD    5   TIME STEP    8
 
 SOLVING FOR HEAD 
                                                   Max.-Head-Change                         Max.-Flux-Residual
  Residual-Control   Outer-Iter.   Inner-Iter.     Column Row Layer    Maximum-Head-Change  Column Row Layer    Maximum-Flux-Residual          L2-NORM 
          0                 1           2             5    3     1      -0.1871533385E+00       5    3    1        -0.2562566250E+01      0.5293670400E+01
          0                 2           2             7    3     1      -0.1822646368E-01       7    3    1        -0.2472311566E+00      0.5172427961E+00
          0                 3           2             7    3     1      -0.4664520768E-02       7    3    1        -0.6326811181E-01      0.7235985121E-01
          0                 4           1             7    3     1      -0.1193885024E-02       7    3    1        -0.1619225965E-01      0.1671073941E-01
          0                 5           1             7    3     1      -0.3055939424E-03       7    3    1        -0.4144387900E-02      0.4208860324E-02
          0                 6           1             7    3     1      -0.7822448030E-04       7    3    1        -0.1060863041E-02      0.1070957897E-02

    ------------------------------------------------
       NWT REQUIRED            6 OUTER ITERATIONS 
       AND A TOTAL OF          9 INNER ITERATIONS.
    ------------------------------------------------

 NO OUTPUT CONTROL FOR STRESS PERIOD    5   TIME STEP    9
 
 SOLVING FOR HEAD 
                                                   Max.-Head-Change                         Max.-Flux-Residual
  Residual-Control   Outer-Iter.   Inner-Iter.     Column Row Layer    Maximum-Head-Change  Column Row Layer    Maximum-Flux-Residual          L2-NORM 
          0                 1           2             5    3     1      -0.1926381704E+00       5    3    1        -0.2412639435E+01      0.5185106435E+01
          0                 2           2             7    3     1      -0.2028638356E-01       7    3    1        -0.2517020121E+00      0.5177689781E+00
          0                 3           1             7    3     1      -0.2009458933E-02       7    3    1        -0.2489612582E-01      0.4215589366E-01
          0                 4           1             7    3     1       0.1937859368E-03       7    3    1         0.2489803812E-02      0.4644666099E-02
          0                 5           1             4   15     1      -0.4834822296E-04       6   13    1        -0.4149992272E-03      0.7132096843E-03

    ------------------------------------------------
       NWT REQUIRED            5 OUTER ITERATIONS 
       AND A TOTAL OF          7 INNER ITERATIONS.
    ------------------------------------------------

 OUTPUT CONTROL FOR STRESS PERIOD    5   TIME STEP   10
    PRINT BUDGET
    SAVE BUDGET

            WELLS   PERIOD    5   STEP  10
 WELL      1   LAYER   1   ROW     6   COL     4   RATE    -3.00000    
 WELL      2   LAYER   1   ROW     6   COL     5   RATE    -3.00000    
 WELL      3   LAYER   1   ROW     7   COL     4   RATE    -3.00000    
 WELL      4   LAYER   1   ROW     7   COL     5   RATE    -3.00000    
 WELL      5   LAYER   1   ROW     8   COL     4   RATE    -3.00000    
 WELL      6   LAYER   1   ROW     8   COL     5   RATE    -3.00000    
 WELL      7   LAYER   1   ROW     9   COL     4   RATE    -3.00000    
 WELL      8   LAYER   1   ROW     9   COL     5   RATE    -3.00000    
 WELL      9   LAYER   1   ROW    10   COL     4   RATE    -3.00000    
 WELL     10   LAYER   1   ROW    10   COL     5   RATE    -3.00000    

  HEAD DEP BOUNDS   PERIOD    5   STEP    10
 BOUNDARY      1   LAYER   1   ROW    13   COL     1   RATE   -0.287307    
 BOUNDARY      2   LAYER   1   ROW    14   COL     9   RATE    0.206689    



 STREAM LISTING     PERIOD      5   STEP       10

 LAYER ROW COL. STREAM  RCH.  FLOW INTO     FLOW TO   FLOW OUT OF   OVRLND.     DIRECT     STREAM       STREAM     STREAM     STREAM   STREAMBED  STREAMBED
                SEG.NO.  NO.  STRM. RCH.    AQUIFER    STRM. RCH.    RUNOFF     PRECIP       ET          HEAD       DEPTH      WIDTH   CONDCTNC.   GRADIENT

   1    1    1     1     1    2.5000E+01  1.1208E+00   2.3879E+01  0.000E+00  0.000E+00  0.000E+00  1.09422E+03  1.172E+00  1.295E+01  5.828E-01  6.411E-01
   1    2    2     1     2    2.3879E+01  2.5892E+00   2.1290E+01  0.000E+00  0.000E+00  0.000E+00  1.08920E+03  1.143E+00  1.257E+01  8.797E-01  9.810E-01
   1    3    3     1     3    2.1290E+01  2.9368E+00   1.8353E+01  0.000E+00  0.000E+00  0.000E+00  1.08352E+03  1.097E+00  1.195E+01  7.168E-01  1.366E+00
   1    3    4     1     4    1.8353E+01  2.4962E+00   1.5857E+01  0.000E+00  0.000E+00  0.000E+00  1.07846E+03  1.051E+00  1.110E+01  6.162E-01  1.350E+00
   1    4    5     2     1    5.8569E+00  2.6775E+00   3.1795E+00  0.000E+00  0.000E+00  0.000E+00  1.07237E+03  4.326E-01  1.200E+01  7.800E-01  1.144E+00
   1    5    6     2     2    3.1795E+00  1.9683E+00   1.2111E+00  0.000E+00  0.000E+00  0.000E+00  1.06679E+03  2.806E-01  1.200E+01  6.000E-01  1.094E+00
   1    6    6     2     3    1.2111E+00  1.2111E+00   0.0000E+00  0.000E+00  0.000E+00  0.000E+00  1.06184E+03  4.418E-02  1.200E+01  6.000E-01  1.015E+00
   1    7    6     2     4    0.0000E+00  0.0000E+00   0.0000E+00  0.000E+00  0.000E+00  0.000E+00  1.05708E+03  0.000E+00  1.200E+01  6.000E-01  1.000E+00
   1    8    6     2     5    0.0000E+00  0.0000E+00   0.0000E+00  0.000E+00  0.000E+00  0.000E+00  1.05236E+03  0.000E+00  1.200E+01  6.000E-01  1.000E+00
   1    3    5     3     1    1.0000E+01  3.5195E-01   9.6481E+00  0.000E+00  0.000E+00  0.000E+00  1.07555E+03  1.909E+00  9.636E+00  7.227E-01  2.435E-01
   1    3    6     3     2    9.6481E+00  1.0050E-01   9.5476E+00  0.000E+00  0.000E+00  0.000E+00  1.07264E+03  1.727E+00  8.909E+00  6.682E-01  7.521E-02
   1    3    7     3     3    9.5476E+00  1.7487E-01   9.3727E+00  0.000E+00  0.000E+00  0.000E+00  1.06987E+03  1.555E+00  8.218E+00  5.547E-01  1.576E-01
   1    4    8     3     4    9.3727E+00  1.5666E+00   7.8061E+00  0.000E+00  0.000E+00  0.000E+00  1.06682E+03  1.364E+00  7.455E+00  6.709E-01  1.168E+00
   1    5    8     3     5    7.8061E+00  1.5001E+00   6.3060E+00  0.000E+00  0.000E+00  0.000E+00  1.06362E+03  1.164E+00  6.655E+00  4.991E-01  1.503E+00
   1    6    8     3     6    6.3060E+00  5.5980E-01   5.7462E+00  0.000E+00  0.000E+00  0.000E+00  1.06158E+03  1.036E+00  6.145E+00  1.844E-01  1.518E+00
   1    5   10     4     1    1.0000E+01  9.0525E-01   9.0947E+00  0.000E+00  0.000E+00  0.000E+00  1.07835E+03  6.210E-01  1.000E+01  2.500E-01  1.207E+00
   1    5    9     4     2    9.0947E+00  1.7835E+00   7.3113E+00  0.000E+00  0.000E+00  0.000E+00  1.07148E+03  5.670E-01  1.000E+01  5.000E-01  1.189E+00
   1    6    8     4     3    7.3113E+00  1.2257E+00   6.0855E+00  0.000E+00  0.000E+00  0.000E+00  1.06368E+03  5.021E-01  1.000E+01  3.500E-01  1.167E+00
   1    6    8     5     1    1.1832E+01  3.8713E-01   1.1445E+01  0.000E+00  0.000E+00  0.000E+00  1.05871E+03  7.082E-01  1.657E+01  6.628E-01  1.947E-01
   1    7    7     5     2    1.1445E+01  1.5515E+00   9.8931E+00  0.000E+00  0.000E+00  0.000E+00  1.05419E+03  6.870E-01  1.573E+01  7.864E-01  6.577E-01
   1    8    7     5     3    9.8931E+00  1.2571E+00   8.6360E+00  0.000E+00  0.000E+00  0.000E+00  1.04990E+03  6.539E-01  1.445E+01  5.058E-01  8.285E-01
   1    8    6     5     4    8.6360E+00  1.2014E+00   7.4346E+00  0.000E+00  0.000E+00  0.000E+00  1.04687E+03  6.221E-01  1.327E+01  3.317E-01  1.207E+00
   1    9    6     6     1    7.4346E+00  2.0070E+00   5.4275E+00  0.000E+00  0.000E+00  0.000E+00  1.04327E+03  5.407E-01  1.200E+01  6.000E-01  1.115E+00
   1   10    7     6     2    5.4275E+00  1.2559E+00   4.1716E+00  0.000E+00  0.000E+00  0.000E+00  1.03864E+03  4.536E-01  1.200E+01  6.000E-01  6.977E-01
   1   11    7     6     3    4.1716E+00  1.1008E+00   3.0708E+00  0.000E+00  0.000E+00  0.000E+00  1.03402E+03  3.831E-01  1.200E+01  6.000E-01  6.116E-01
   1   12    7     6     4    3.0708E+00  7.7617E-01   2.2946E+00  0.000E+00  0.000E+00  0.000E+00  1.02941E+03  3.200E-01  1.200E+01  6.000E-01  4.312E-01
   1   13    7     6     5    2.2946E+00 -7.9043E-01   3.0850E+00  0.000E+00  0.000E+00  0.000E+00  1.02623E+03  3.205E-01  1.200E+01  2.400E-01 -1.098E+00
   1   14    9     7     1    1.5000E+02  1.7145E+00   1.4829E+02  0.000E+00  0.000E+00  0.000E+00  1.03987E+03  2.287E+00  5.529E+01  5.593E+00  1.022E-01
   1   13    8     7     2    1.4829E+02  1.7298E+00   1.4656E+02  0.000E+00  0.000E+00  0.000E+00  1.03478E+03  2.278E+00  5.525E+01  6.147E+00  9.380E-02
   1   13    7     7     3    1.4656E+02  9.3123E-01   1.4562E+02  0.000E+00  0.000E+00  0.000E+00  1.02969E+03  2.270E+00  5.522E+01  5.585E+00  5.558E-02
   1   13    6     8     1    1.4871E+02 -2.3318E-01   1.4894E+02  0.000E+00  0.000E+00  0.000E+00  1.02468E+03  2.809E+00  4.072E+01  4.150E+00 -1.873E-02
   1   13    5     8     2    1.4894E+02 -7.0465E-01   1.4965E+02  0.000E+00  0.000E+00  0.000E+00  1.01844E+03  2.812E+00  4.077E+01  4.155E+00 -5.653E-02
   1   13    4     8     3    1.4965E+02 -1.5381E+00   1.5119E+02  0.000E+00  0.000E+00  0.000E+00  1.01219E+03  2.820E+00  4.089E+01  4.166E+00 -1.231E-01
   1   13    3     8     4    1.5119E+02 -2.2306E+00   1.5342E+02  0.000E+00  0.000E+00  0.000E+00  1.00596E+03  2.833E+00  4.108E+01  4.186E+00 -1.776E-01
   1   13    2     8     5    1.5342E+02 -1.9167E+00   1.5533E+02  0.000E+00  0.000E+00  0.000E+00  9.99722E+02  2.847E+00  4.129E+01  4.207E+00 -1.519E-01
   1   13    1     8     6    1.5533E+02 -2.0915E+00   1.5742E+02  0.000E+00  0.000E+00  0.000E+00  9.94736E+02  2.861E+00  4.149E+01  2.537E+00 -2.748E-01



 UBDSV3 SAVING "           GW ET" ON UNIT  61 AT TIME STEP 10, STRESS PERIOD 5
 UBDSV3 SAVING "    UZF RECHARGE" ON UNIT  61 AT TIME STEP 10, STRESS PERIOD 5
 UBDSV3 SAVING " SURFACE LEAKAGE" ON UNIT  61 AT TIME STEP 10, STRESS PERIOD 5
 UBDSV3 SAVING "       HORT+DUNN" ON UNIT  61 AT TIME STEP 10, STRESS PERIOD 5
 UBDSV3 SAVING "  STORAGE CHANGE" ON UNIT  61 AT TIME STEP 10, STRESS PERIOD 5


UNSATURATED ZONE PACKAGE VOLUMETRIC BUDGET FOR  TIME STEP    10 STRESS PERIOD    5
  ------------------------------------------------------------------------------



     CUMULATIVE VOLUMES      L**3       RATES FOR THIS TIME STEP      L**3/T
     ------------------                 ------------------------

           IN:                                      IN:
           ---                                      ---
        INFILTRATION =   924479771.5166          INFILTRATION =          42.3750

          OUT:                                     OUT:
          ----                                     ----
              UZF ET =   974908457.3447                UZF ET =          67.3383
        UZF RECHARGE =   171467057.8380          UZF RECHARGE =           8.7038

            IN - OUT =  -221895743.6661              IN - OUT =         -33.6672

          STORAGE:                                 STORAGE:
          --------                                 --------
      STORAGE CHANGE =  -221663311.0568        STORAGE CHANGE =         -33.6668

 PERCENT DISCREPANCY IS DIFFERENCE BETWEEN IN-OUT MINUS CHANGE IN STORAGE
 DIVIDED BY THE AVERAGE OF IN AND OUT TIMES 100

 PERCENT DISCREPANCY =          -0.01     PERCENT DISCREPANCY =          -0.00






1
  VOLUMETRIC BUDGET FOR ENTIRE MODEL AT END OF TIME STEP   10, STRESS PERIOD   5
  ------------------------------------------------------------------------------

     CUMULATIVE VOLUMES      L**3       RATES FOR THIS TIME STEP      L**3/T
     ------------------                 ------------------------

           IN:                                      IN:
           ---                                      ---
             STORAGE     =    24790284.0000               STORAGE     =          19.9176
       CONSTANT HEAD     =           0.0000         CONSTANT HEAD     =           0.0000
               WELLS     =           0.0000                 WELLS     =           0.0000
     HEAD DEP BOUNDS     =     2444865.7500       HEAD DEP BOUNDS     =           0.2067
      STREAM LEAKAGE     =   473620576.0000        STREAM LEAKAGE     =          37.0809
        UZF RECHARGE     =   171467088.0000          UZF RECHARGE     =           8.7038
               GW ET     =           0.0000                 GW ET     =           0.0000
     SURFACE LEAKAGE     =           0.0000       SURFACE LEAKAGE     =           0.0000

                TOTAL IN =   672322816.0000                  TOTAL IN =          65.9090

          OUT:                                     OUT:
          ----                                     ----
             STORAGE     =   161805328.0000               STORAGE     =           4.7320
       CONSTANT HEAD     =           0.0000         CONSTANT HEAD     =           0.0000
               WELLS     =   197226976.0000                 WELLS     =          30.0000
     HEAD DEP BOUNDS     =     3341708.2500       HEAD DEP BOUNDS     =           0.2873
      STREAM LEAKAGE     =    95956144.0000        STREAM LEAKAGE     =           9.5052
        UZF RECHARGE     =           0.0000          UZF RECHARGE     =           0.0000
               GW ET     =   213988720.0000                 GW ET     =          21.3848
     SURFACE LEAKAGE     =           0.0000       SURFACE LEAKAGE     =           0.0000

               TOTAL OUT =   672318912.0000                 TOTAL OUT =          65.9092

                IN - OUT =        3904.0000                  IN - OUT =      -2.0599E-04

     PERCENT DISCREPANCY =           0.00         PERCENT DISCREPANCY =          -0.00






         TIME SUMMARY AT END OF TIME STEP   10 IN STRESS PERIOD    5
                    SECONDS     MINUTES      HOURS       DAYS        YEARS
                    -----------------------------------------------------------
   TIME STEP LENGTH 1.95033E+05  3250.6      54.176      2.2573     6.18023E-03
 STRESS PERIOD TIME 1.31823E+06  21971.      366.18      15.257     4.17723E-02
         TOTAL TIME 1.18302E+07 1.97171E+05  3286.2      136.92     0.37488    
1
 
 SOLVING FOR HEAD 
                                                   Max.-Head-Change                         Max.-Flux-Residual
  Residual-Control   Outer-Iter.   Inner-Iter.     Column Row Layer    Maximum-Head-Change  Column Row Layer    Maximum-Flux-Residual          L2-NORM 
          0                 1           2             5    3     1      -0.1925538414E+00       5    3    1        -0.2207032145E+01      0.5008436407E+01
          0                 2           2             7    3     1      -0.2075851989E-01       7    3    1        -0.2350437249E+00      0.4929760431E+00
          0                 3           1             7    3     1       0.2001513283E-02       7    3    1         0.2349990356E-01      0.4041012177E-01
          0                 4           1             7    3     1      -0.1155722233E-03       6   13    1        -0.2473372897E-02      0.4071289622E-02
          0                 5           1             4   15     1      -0.5257670405E-04       6   13    1        -0.5067115877E-03      0.7027856136E-03

    ------------------------------------------------
       NWT REQUIRED            5 OUTER ITERATIONS 
       AND A TOTAL OF          7 INNER ITERATIONS.
    ------------------------------------------------

 NO OUTPUT CONTROL FOR STRESS PERIOD    5   TIME STEP   11
 
 SOLVING FOR HEAD 
                                                   Max.-Head-Change                         Max.-Flux-Residual
  Residual-Control   Outer-Iter.   Inner-Iter.     Column Row Layer    Maximum-Head-Change  Column Row Layer    Maximum-Flux-Residual          L2-NORM 
          0                 1           2             6    3     1      -0.1906513294E+00       6    3    1        -0.1992079151E+01      0.4783444561E+01
          0                 2           2             7    3     1      -0.1906339372E-01       7    3    1        -0.1977092417E+00      0.4434198190E+00
          0                 3           1             7    3     1       0.1838099628E-02       7    3    1         0.1976775568E-01      0.3580232801E-01
          0                 4           1             7    3     1      -0.1061371341E-03       6   13    1        -0.2116582996E-02      0.3428458846E-02
          0                 5           1             4   15     1      -0.5421368633E-04       6   13    1        -0.3859956208E-03      0.5445080819E-03

    ------------------------------------------------
       NWT REQUIRED            5 OUTER ITERATIONS 
       AND A TOTAL OF          7 INNER ITERATIONS.
    ------------------------------------------------

 NO OUTPUT CONTROL FOR STRESS PERIOD    5   TIME STEP   12
 
 SOLVING FOR HEAD 
                                                   Max.-Head-Change                         Max.-Flux-Residual
  Residual-Control   Outer-Iter.   Inner-Iter.     Column Row Layer    Maximum-Head-Change  Column Row Layer    Maximum-Flux-Residual          L2-NORM 
          0                 1           2             6    3     1      -0.1848777617E+00       6    3    1        -0.1769574215E+01      0.4520248539E+01
          0                 2           2             7    3     1      -0.1904697771E-01       7    3    1        -0.1806169059E+00      0.4272098142E+00
          0                 3           1             7    3     1       0.1836570599E-02       7    3    1         0.1806134747E-01      0.3361889714E-01
          0                 4           1             7    3     1      -0.1060389059E-03       6   13    1        -0.1464798824E-02      0.2717977542E-02
          0                 5           1             4   15     1      -0.5491437092E-04       6   13    1        -0.2325852279E-03      0.3691234648E-03

    ------------------------------------------------
       NWT REQUIRED            5 OUTER ITERATIONS 
       AND A TOTAL OF          7 INNER ITERATIONS.
    ------------------------------------------------

 NO OUTPUT CONTROL FOR STRESS PERIOD    5   TIME STEP   13
 
 SOLVING FOR HEAD 
                                                   Max.-Head-Change                         Max.-Flux-Residual
  Residual-Control   Outer-Iter.   Inner-Iter.     Column Row Layer    Maximum-Head-Change  Column Row Layer    Maximum-Flux-Residual          L2-NORM 
          0                 1           2             6    3     1      -0.1704271065E+00       6    3    1        -0.1495253298E+01      0.4237925167E+01
          0                 2           2             5    3     1      -0.2949442239E-01       5    3    1        -0.2606906277E+00      0.5084339593E+00
          0                 3           2             5    3     1       0.2842021579E-02       5    3    1         0.2606806996E-01      0.4075929627E-01
          0                 4           1             5    3     1      -0.1643245357E-03       5    3    1        -0.1564123780E-02      0.2791826210E-02
          0                 5           1             4   15     1      -0.5521198480E-04       6   13    1        -0.1859136293E-03      0.2860964012E-03

    ------------------------------------------------
       NWT REQUIRED            5 OUTER ITERATIONS 
       AND A TOTAL OF          8 INNER ITERATIONS.
    ------------------------------------------------

 NO OUTPUT CONTROL FOR STRESS PERIOD    5   TIME STEP   14
 
 SOLVING FOR HEAD 
                                                   Max.-Head-Change                         Max.-Flux-Residual
  Residual-Control   Outer-Iter.   Inner-Iter.     Column Row Layer    Maximum-Head-Change  Column Row Layer    Maximum-Flux-Residual          L2-NORM 
          0                 1           2             6    3     1      -0.1476431145E+00       6    3    1        -0.1188169787E+01      0.3967525120E+01
          0                 2           2             6    3     1      -0.3720903386E-01       6    3    1        -0.2999336629E+00      0.5513652743E+00
          0                 3           2             5    3     1      -0.7744304687E-02       5    3    1        -0.6297443759E-01      0.7843528066E-01
          0                 4           1             5    3     1      -0.1979398777E-02       5    3    1        -0.1607396219E-01      0.1712883348E-01
          0                 5           1             5    3     1      -0.5059082639E-03       5    3    1        -0.4109735779E-02      0.4253840318E-02
          0                 6           1             5    3     1      -0.1293006474E-03       5    3    1        -0.1050328150E-02      0.1071213481E-02
          0                 7           1             5    3     1      -0.3304625750E-04       5    3    1        -0.2684460884E-03      0.2729803232E-03

    ------------------------------------------------
       NWT REQUIRED            7 OUTER ITERATIONS 
       AND A TOTAL OF         10 INNER ITERATIONS.
    ------------------------------------------------

 OUTPUT CONTROL FOR STRESS PERIOD    5   TIME STEP   15
    PRINT BUDGET
    SAVE BUDGET

            WELLS   PERIOD    5   STEP  15
 WELL      1   LAYER   1   ROW     6   COL     4   RATE    -3.00000    
 WELL      2   LAYER   1   ROW     6   COL     5   RATE    -3.00000    
 WELL      3   LAYER   1   ROW     7   COL     4   RATE    -3.00000    
 WELL      4   LAYER   1   ROW     7   COL     5   RATE    -3.00000    
 WELL      5   LAYER   1   ROW     8   COL     4   RATE    -3.00000    
 WELL      6   LAYER   1   ROW     8   COL     5   RATE    -3.00000    
 WELL      7   LAYER   1   ROW     9   COL     4   RATE    -3.00000    
 WELL      8   LAYER   1   ROW     9   COL     5   RATE    -3.00000    
 WELL      9   LAYER   1   ROW    10   COL     4   RATE    -3.00000    
 WELL     10   LAYER   1   ROW    10   COL     5   RATE    -3.00000    

  HEAD DEP BOUNDS   PERIOD    5   STEP    15
 BOUNDARY      1   LAYER   1   ROW    13   COL     1   RATE   -0.285395    
 BOUNDARY      2   LAYER   1   ROW    14   COL     9   RATE    0.206861    



 STREAM LISTING     PERIOD      5   STEP       15

 LAYER ROW COL. STREAM  RCH.  FLOW INTO     FLOW TO   FLOW OUT OF   OVRLND.     DIRECT     STREAM       STREAM     STREAM     STREAM   STREAMBED  STREAMBED
                SEG.NO.  NO.  STRM. RCH.    AQUIFER    STRM. RCH.    RUNOFF     PRECIP       ET          HEAD       DEPTH      WIDTH   CONDCTNC.   GRADIENT

   1    1    1     1     1    2.5000E+01  1.1341E+00   2.3866E+01  0.000E+00  0.000E+00  0.000E+00  1.09422E+03  1.172E+00  1.295E+01  5.827E-01  6.488E-01
   1    2    2     1     2    2.3866E+01  2.6152E+00   2.1251E+01  0.000E+00  0.000E+00  0.000E+00  1.08920E+03  1.143E+00  1.256E+01  8.793E-01  9.913E-01
   1    3    3     1     3    2.1251E+01  2.9336E+00   1.8317E+01  0.000E+00  0.000E+00  0.000E+00  1.08352E+03  1.097E+00  1.194E+01  7.161E-01  1.366E+00
   1    3    4     1     4    1.8317E+01  2.4934E+00   1.5824E+01  0.000E+00  0.000E+00  0.000E+00  1.07846E+03  1.051E+00  1.109E+01  6.155E-01  1.350E+00
   1    4    5     2     1    5.8237E+00  2.6760E+00   3.1477E+00  0.000E+00  0.000E+00  0.000E+00  1.07236E+03  4.308E-01  1.200E+01  7.800E-01  1.144E+00
   1    5    6     2     2    3.1477E+00  1.9669E+00   1.1808E+00  0.000E+00  0.000E+00  0.000E+00  1.06679E+03  2.782E-01  1.200E+01  6.000E-01  1.093E+00
   1    6    6     2     3    1.1808E+00  1.1808E+00   0.0000E+00  0.000E+00  0.000E+00  0.000E+00  1.06184E+03  4.351E-02  1.200E+01  6.000E-01  1.015E+00
   1    7    6     2     4    0.0000E+00  0.0000E+00   0.0000E+00  0.000E+00  0.000E+00  0.000E+00  1.05708E+03  0.000E+00  1.200E+01  6.000E-01  1.000E+00
   1    8    6     2     5    0.0000E+00  0.0000E+00   0.0000E+00  0.000E+00  0.000E+00  0.000E+00  1.05236E+03  0.000E+00  1.200E+01  6.000E-01  1.000E+00
   1    3    5     3     1    1.0000E+01  9.8144E-01   9.0186E+00  0.000E+00  0.000E+00  0.000E+00  1.07555E+03  1.909E+00  9.636E+00  7.227E-01  6.790E-01
   1    3    6     3     2    9.0186E+00  7.1976E-01   8.2988E+00  0.000E+00  0.000E+00  0.000E+00  1.07264E+03  1.727E+00  8.909E+00  6.682E-01  5.386E-01
   1    3    7     3     3    8.2988E+00  5.1498E-01   7.7838E+00  0.000E+00  0.000E+00  0.000E+00  1.06987E+03  1.555E+00  8.218E+00  5.547E-01  4.642E-01
   1    4    8     3     4    7.7838E+00  1.5544E+00   6.2294E+00  0.000E+00  0.000E+00  0.000E+00  1.06682E+03  1.364E+00  7.455E+00  6.709E-01  1.158E+00
   1    5    8     3     5    6.2294E+00  1.5045E+00   4.7248E+00  0.000E+00  0.000E+00  0.000E+00  1.06362E+03  1.164E+00  6.655E+00  4.991E-01  1.507E+00
   1    6    8     3     6    4.7248E+00  5.5980E-01   4.1650E+00  0.000E+00  0.000E+00  0.000E+00  1.06158E+03  1.036E+00  6.145E+00  1.844E-01  1.518E+00
   1    5   10     4     1    1.0000E+01  9.0525E-01   9.0947E+00  0.000E+00  0.000E+00  0.000E+00  1.07835E+03  6.210E-01  1.000E+01  2.500E-01  1.207E+00
   1    5    9     4     2    9.0947E+00  1.7835E+00   7.3113E+00  0.000E+00  0.000E+00  0.000E+00  1.07148E+03  5.670E-01  1.000E+01  5.000E-01  1.189E+00
   1    6    8     4     3    7.3113E+00  1.2257E+00   6.0855E+00  0.000E+00  0.000E+00  0.000E+00  1.06368E+03  5.021E-01  1.000E+01  3.500E-01  1.167E+00
   1    6    8     5     1    1.0251E+01  3.3916E-01   9.9114E+00  0.000E+00  0.000E+00  0.000E+00  1.05867E+03  6.735E-01  1.520E+01  6.081E-01  1.859E-01
   1    7    7     5     2    9.9114E+00  1.3982E+00   8.5132E+00  0.000E+00  0.000E+00  0.000E+00  1.05415E+03  6.526E-01  1.440E+01  7.201E-01  6.472E-01
   1    8    7     5     3    8.5132E+00  1.1138E+00   7.3995E+00  0.000E+00  0.000E+00  0.000E+00  1.04987E+03  6.200E-01  1.319E+01  4.616E-01  8.042E-01
   1    8    6     5     4    7.3995E+00  1.0824E+00   6.3171E+00  0.000E+00  0.000E+00  0.000E+00  1.04684E+03  5.886E-01  1.206E+01  3.016E-01  1.196E+00
   1    9    6     6     1    6.3171E+00  1.9756E+00   4.3415E+00  0.000E+00  0.000E+00  0.000E+00  1.04321E+03  4.830E-01  1.200E+01  6.000E-01  1.098E+00
   1   10    7     6     2    4.3415E+00  1.2217E+00   3.1198E+00  0.000E+00  0.000E+00  0.000E+00  1.03857E+03  3.900E-01  1.200E+01  6.000E-01  6.787E-01
   1   11    7     6     3    3.1198E+00  1.0173E+00   2.1025E+00  0.000E+00  0.000E+00  0.000E+00  1.03395E+03  3.148E-01  1.200E+01  6.000E-01  5.652E-01
   1   12    7     6     4    2.1025E+00  6.6606E-01   1.4365E+00  0.000E+00  0.000E+00  0.000E+00  1.02934E+03  2.493E-01  1.200E+01  6.000E-01  3.700E-01
   1   13    7     6     5    1.4365E+00 -7.9104E-01   2.2275E+00  0.000E+00  0.000E+00  0.000E+00  1.02616E+03  2.545E-01  1.200E+01  2.400E-01 -1.099E+00
   1   14    9     7     1    1.5000E+02  1.7394E+00   1.4826E+02  0.000E+00  0.000E+00  0.000E+00  1.03987E+03  2.287E+00  5.529E+01  5.592E+00  1.037E-01
   1   13    8     7     2    1.4826E+02  1.7401E+00   1.4652E+02  0.000E+00  0.000E+00  0.000E+00  1.03478E+03  2.277E+00  5.525E+01  6.147E+00  9.436E-02
   1   13    7     7     3    1.4652E+02  1.2790E+00   1.4524E+02  0.000E+00  0.000E+00  0.000E+00  1.02969E+03  2.269E+00  5.521E+01  5.584E+00  7.635E-02
   1   13    6     8     1    1.4747E+02  8.4412E-02   1.4738E+02  0.000E+00  0.000E+00  0.000E+00  1.02467E+03  2.799E+00  4.058E+01  4.135E+00  6.804E-03
   1   13    5     8     2    1.4738E+02 -4.3775E-01   1.4782E+02  0.000E+00  0.000E+00  0.000E+00  1.01842E+03  2.800E+00  4.060E+01  4.137E+00 -3.527E-02
   1   13    4     8     3    1.4782E+02 -1.2595E+00   1.4908E+02  0.000E+00  0.000E+00  0.000E+00  1.01218E+03  2.806E+00  4.069E+01  4.146E+00 -1.013E-01
   1   13    3     8     4    1.4908E+02 -1.9406E+00   1.5102E+02  0.000E+00  0.000E+00  0.000E+00  1.00594E+03  2.817E+00  4.085E+01  4.163E+00 -1.554E-01
   1   13    2     8     5    1.5102E+02 -1.9206E+00   1.5294E+02  0.000E+00  0.000E+00  0.000E+00  9.99706E+02  2.831E+00  4.105E+01  4.183E+00 -1.531E-01
   1   13    1     8     6    1.5294E+02 -1.9948E+00   1.5494E+02  0.000E+00  0.000E+00  0.000E+00  9.94719E+02  2.844E+00  4.124E+01  2.522E+00 -2.637E-01



 UBDSV3 SAVING "           GW ET" ON UNIT  61 AT TIME STEP 15, STRESS PERIOD 5
 UBDSV3 SAVING "    UZF RECHARGE" ON UNIT  61 AT TIME STEP 15, STRESS PERIOD 5
 UBDSV3 SAVING " SURFACE LEAKAGE" ON UNIT  61 AT TIME STEP 15, STRESS PERIOD 5
 UBDSV3 SAVING "       HORT+DUNN" ON UNIT  61 AT TIME STEP 15, STRESS PERIOD 5
 UBDSV3 SAVING "  STORAGE CHANGE" ON UNIT  61 AT TIME STEP 15, STRESS PERIOD 5


UNSATURATED ZONE PACKAGE VOLUMETRIC BUDGET FOR  TIME STEP    15 STRESS PERIOD    5
  ------------------------------------------------------------------------------



     CUMULATIVE VOLUMES      L**3       RATES FOR THIS TIME STEP      L**3/T
     ------------------                 ------------------------

           IN:                                      IN:
           ---                                      ---
        INFILTRATION =   979981122.0635          INFILTRATION =          42.3750

          OUT:                                     OUT:
          ----                                     ----
              UZF ET =  1063356169.2158                UZF ET =          60.8691
        UZF RECHARGE =   181272615.5241          UZF RECHARGE =           7.2351

            IN - OUT =  -264647662.6764              IN - OUT =         -25.7292

          STORAGE:                                 STORAGE:
          --------                                 --------
      STORAGE CHANGE =  -264414830.2375        STORAGE CHANGE =         -25.7290

 PERCENT DISCREPANCY IS DIFFERENCE BETWEEN IN-OUT MINUS CHANGE IN STORAGE
 DIVIDED BY THE AVERAGE OF IN AND OUT TIMES 100

 PERCENT DISCREPANCY =          -0.00     PERCENT DISCREPANCY =          -0.00






1
  VOLUMETRIC BUDGET FOR ENTIRE MODEL AT END OF TIME STEP   15, STRESS PERIOD   5
  ------------------------------------------------------------------------------

     CUMULATIVE VOLUMES      L**3       RATES FOR THIS TIME STEP      L**3/T
     ------------------                 ------------------------

           IN:                                      IN:
           ---                                      ---
             STORAGE     =    48527360.0000               STORAGE     =          16.6868
       CONSTANT HEAD     =           0.0000         CONSTANT HEAD     =           0.0000
               WELLS     =           0.0000                 WELLS     =           0.0000
     HEAD DEP BOUNDS     =     2715751.5000       HEAD DEP BOUNDS     =           0.2069
      STREAM LEAKAGE     =   523249056.0000        STREAM LEAKAGE     =          38.4064
        UZF RECHARGE     =   181272656.0000          UZF RECHARGE     =           7.2351
               GW ET     =           0.0000                 GW ET     =           0.0000
     SURFACE LEAKAGE     =           0.0000       SURFACE LEAKAGE     =           0.0000

                TOTAL IN =   755764800.0000                  TOTAL IN =          62.5352

          OUT:                                     OUT:
          ----                                     ----
             STORAGE     =   166712576.0000               STORAGE     =           3.1968
       CONSTANT HEAD     =           0.0000         CONSTANT HEAD     =           0.0000
               WELLS     =   236519984.0000                 WELLS     =          30.0000
     HEAD DEP BOUNDS     =     3716528.0000       HEAD DEP BOUNDS     =           0.2854
      STREAM LEAKAGE     =   107366280.0000        STREAM LEAKAGE     =           8.3442
        UZF RECHARGE     =           0.0000          UZF RECHARGE     =           0.0000
               GW ET     =   241445664.0000                 GW ET     =          20.7088
     SURFACE LEAKAGE     =           0.0000       SURFACE LEAKAGE     =           0.0000

               TOTAL OUT =   755761024.0000                 TOTAL OUT =          62.5352

                IN - OUT =        3776.0000                  IN - OUT =      -4.5776E-05

     PERCENT DISCREPANCY =           0.00         PERCENT DISCREPANCY =          -0.00






         TIME SUMMARY AT END OF TIME STEP   15 IN STRESS PERIOD    5
                    SECONDS     MINUTES      HOURS       DAYS        YEARS
                    -----------------------------------------------------------
   TIME STEP LENGTH 3.14103E+05  5235.0      87.251      3.6354     9.95332E-03
 STRESS PERIOD TIME 2.62800E+06  43800.      730.00      30.417     8.32763E-02
         TOTAL TIME 1.31400E+07 2.19000E+05  3650.0      152.08     0.41638    
1
1
                            STRESS PERIOD NO.    6, LENGTH =   2628000.    
                            -----------------------------------------------

                              NUMBER OF TIME STEPS =    15

                               MULTIPLIER FOR DELT =     1.100

                            INITIAL TIME STEP SIZE =   82713.07    

      0 WELLS

 REUSING NON-PARAMETER GHB CELLS FROM LAST STRESS PERIOD

      2 GHB CELLS

 REUSING STREAM SEGMENT DATA FROM LAST STRESS PERIOD



            AREAL INFILTRATION RATE
 READING ON UNIT   19 WITH FORMAT: (10F4.0)            

            1           2           3           4           5           6           7           8           9          10
 ........................................................................................................................
   1   1.0000E-08  2.0000E-08   0.000       0.000       0.000       0.000       0.000       0.000       0.000       0.000    
   2   2.0000E-08  1.0000E-08  2.0000E-08   0.000       0.000      8.0000E-08  8.0000E-08  5.0000E-08   0.000       0.000    
   3    0.000      5.0000E-08  1.0000E-08  1.0000E-08  8.0000E-08  8.0000E-08  5.0000E-08  5.0000E-08   0.000       0.000    
   4   8.0000E-08  5.0000E-08  1.0000E-08  1.0000E-08  1.0000E-08  1.0000E-08  1.0000E-08  1.0000E-08  2.0000E-08   0.000    
   5   8.0000E-08  5.0000E-08  1.0000E-08  1.0000E-08  1.0000E-08  1.0000E-08  1.0000E-08  1.0000E-08  1.0000E-08  1.0000E-08
   6   8.0000E-08  5.0000E-08  5.0000E-08  2.0000E-08  2.0000E-08  1.0000E-08  1.0000E-08  1.0000E-08  1.0000E-08  5.0000E-08
   7   8.0000E-08  5.0000E-08  5.0000E-08  2.0000E-08  2.0000E-08  1.0000E-08  1.0000E-08  2.0000E-08  2.0000E-08   0.000    
   8    0.000      5.0000E-08  5.0000E-08  2.0000E-08  2.0000E-08  1.0000E-08  1.0000E-08  2.0000E-08  5.0000E-08   0.000    
   9    0.000      5.0000E-08  5.0000E-08  2.0000E-08  2.0000E-08  1.0000E-08  1.0000E-08  2.0000E-08  5.0000E-08   0.000    
  10    0.000      5.0000E-08  5.0000E-08  2.0000E-08  2.0000E-08  1.0000E-08  1.0000E-08  2.0000E-08  5.0000E-08  8.0000E-08
  11    0.000      1.0000E-08  1.0000E-08  1.0000E-08  1.0000E-08  1.0000E-08  1.0000E-08  2.0000E-08  5.0000E-08   0.000    
  12   1.0000E-08  1.0000E-08  1.0000E-08  1.0000E-08  1.0000E-08  1.0000E-08  1.0000E-08  1.0000E-08  2.0000E-08   0.000    
  13   1.0000E-08  1.0000E-08  2.0000E-08  2.0000E-08  2.0000E-08  2.0000E-08  2.0000E-08  1.0000E-08  1.0000E-08   0.000    
  14    0.000      2.0000E-08  5.0000E-08  5.0000E-08  5.0000E-08  5.0000E-08  5.0000E-08  2.0000E-08  1.0000E-08   0.000    
  15    0.000       0.000      8.0000E-08  8.0000E-08  8.0000E-08  8.0000E-08   0.000       0.000       0.000       0.000    

USING ET RATE FROM PREVIOUS STRESS PERIOD. CURRENT PERIOD IS:       6

 USING ET EXTINCTION DEPTH FROM PREVIOUS STRESS PERIOD. CURRENT PERIOD IS:       6

 USING EXTINCTION WATER CONTENT FROM PREVIOUS STRESS PERIOD. CURRENT PERIOD IS:       6
 
 SOLVING FOR HEAD 
                                                   Max.-Head-Change                         Max.-Flux-Residual
  Residual-Control   Outer-Iter.   Inner-Iter.     Column Row Layer    Maximum-Head-Change  Column Row Layer    Maximum-Flux-Residual          L2-NORM 
          0                 1           2             6    3     1      -0.3995239642E-01       5    8    1         0.1943994067E+01      0.6270362637E+01
          0                 2           2             6    3     1      -0.6902736939E-02       6    3    1        -0.1954604272E+00      0.6827015904E+00
          0                 3           1             5    3     1      -0.1877021825E-02       5    3    1        -0.5327348155E-01      0.7402089606E-01
          0                 4           1             5    3     1      -0.5320514349E-03       5    3    1        -0.1509679717E-01      0.1634731339E-01
          0                 5           1             5    3     1      -0.1508119156E-03       5    3    1        -0.4279462391E-02      0.4455457005E-02
          0                 6           1             5    3     1      -0.4274800309E-04       5    3    1        -0.1213024623E-02      0.1239890319E-02

    ------------------------------------------------
       NWT REQUIRED            6 OUTER ITERATIONS 
       AND A TOTAL OF          8 INNER ITERATIONS.
    ------------------------------------------------

 NO OUTPUT CONTROL FOR STRESS PERIOD    6   TIME STEP    1
 
 SOLVING FOR HEAD 
                                                   Max.-Head-Change                         Max.-Flux-Residual
  Residual-Control   Outer-Iter.   Inner-Iter.     Column Row Layer    Maximum-Head-Change  Column Row Layer    Maximum-Flux-Residual          L2-NORM 
          0                 1           2             5    8     1       0.3871311657E-01       5    8    1         0.1939190828E+01      0.6208152661E+01
          0                 2           2             6    3     1      -0.9614644790E-02       6    3    1        -0.2482659054E+00      0.6936900494E+00
          0                 3           2             6    3     1      -0.2656605904E-02       6    3    1        -0.6858608206E-01      0.9689688070E-01
          0                 4           1             6    3     1      -0.7339688356E-03       6    3    1        -0.1895209557E-01      0.2443739530E-01
          0                 5           1             6    3     1      -0.2027662064E-03       6    3    1        -0.5235788575E-02      0.6719686610E-02
          0                 6           1             6    3     1      -0.5601331357E-04       6    3    1        -0.1446430721E-02      0.1861827960E-02

    ------------------------------------------------
       NWT REQUIRED            6 OUTER ITERATIONS 
       AND A TOTAL OF          9 INNER ITERATIONS.
    ------------------------------------------------

 NO OUTPUT CONTROL FOR STRESS PERIOD    6   TIME STEP    2
 
 SOLVING FOR HEAD 
                                                   Max.-Head-Change                         Max.-Flux-Residual
  Residual-Control   Outer-Iter.   Inner-Iter.     Column Row Layer    Maximum-Head-Change  Column Row Layer    Maximum-Flux-Residual          L2-NORM 
          0                 1           2             5    8     1       0.4246783745E-01       5    8    1         0.1934248462E+01      0.6158916105E+01
          0                 2           2             6    3     1      -0.8064401583E-02       5    8    1        -0.1934258056E+00      0.6697869673E+00
          0                 3           2             6    3     1      -0.2222369731E-02       6    3    1        -0.5231013016E-01      0.8408668435E-01
          0                 4           1             6    3     1      -0.6123504745E-03       6    3    1        -0.1441622763E-01      0.2050603190E-01
          0                 5           1             6    3     1      -0.1687092646E-03       6    3    1        -0.3971966406E-02      0.5617972081E-02
          0                 6           1             6    3     1      -0.4647799087E-04       6    3    1        -0.1094306726E-02      0.1554462187E-02

    ------------------------------------------------
       NWT REQUIRED            6 OUTER ITERATIONS 
       AND A TOTAL OF          9 INNER ITERATIONS.
    ------------------------------------------------

 NO OUTPUT CONTROL FOR STRESS PERIOD    6   TIME STEP    3
 
 SOLVING FOR HEAD 
                                                   Max.-Head-Change                         Max.-Flux-Residual
  Residual-Control   Outer-Iter.   Inner-Iter.     Column Row Layer    Maximum-Head-Change  Column Row Layer    Maximum-Flux-Residual          L2-NORM 
          0                 1           2             5    8     1       0.4657526506E-01       5    8    1         0.1928956919E+01      0.6130357185E+01
          0                 2           2             6    3     1      -0.8374694405E-02       5    8    1        -0.1928967871E+00      0.6609001874E+00
          0                 3           2             6    3     1      -0.2300281071E-02       6    3    1        -0.4939329642E-01      0.7963311530E-01
          0                 4           1             6    3     1      -0.6317163527E-03       6    3    1        -0.1356700330E-01      0.1907113219E-01
          0                 5           1             6    3     1      -0.1734643140E-03       6    3    1        -0.3725614467E-02      0.5194080364E-02
          0                 6           1             6    3     1      -0.4762787239E-04       6    3    1        -0.1023002274E-02      0.1428939093E-02

    ------------------------------------------------
       NWT REQUIRED            6 OUTER ITERATIONS 
       AND A TOTAL OF          9 INNER ITERATIONS.
    ------------------------------------------------

 NO OUTPUT CONTROL FOR STRESS PERIOD    6   TIME STEP    4
 
 SOLVING FOR HEAD 
                                                   Max.-Head-Change                         Max.-Flux-Residual
  Residual-Control   Outer-Iter.   Inner-Iter.     Column Row Layer    Maximum-Head-Change  Column Row Layer    Maximum-Flux-Residual          L2-NORM 
          0                 1           2             5    8     1       0.5106525942E-01       5    8    1         0.1923206263E+01      0.6100489480E+01
          0                 2           2             6    3     1      -0.8543910199E-02       5    8    1        -0.1923218775E+00      0.6519645447E+00
          0                 3           2             6    3     1      -0.2299528054E-02       6    3    1        -0.4505638161E-01      0.7458040874E-01
          0                 4           1             6    3     1      -0.6188009223E-03       6    3    1        -0.1212649878E-01      0.1728332380E-01
          0                 5           1             6    3     1      -0.1664990771E-03       6    3    1        -0.3263042764E-02      0.4634124413E-02
          0                 6           1             6    3     1      -0.4479597834E-04       6    3    1        -0.8779584313E-03      0.1256119002E-02

    ------------------------------------------------
       NWT REQUIRED            6 OUTER ITERATIONS 
       AND A TOTAL OF          9 INNER ITERATIONS.
    ------------------------------------------------

 OUTPUT CONTROL FOR STRESS PERIOD    6   TIME STEP    5
    PRINT BUDGET
    SAVE BUDGET

  HEAD DEP BOUNDS   PERIOD    6   STEP     5
 BOUNDARY      1   LAYER   1   ROW    13   COL     1   RATE   -0.284719    
 BOUNDARY      2   LAYER   1   ROW    14   COL     9   RATE    0.206862    



 STREAM LISTING     PERIOD      6   STEP        5

 LAYER ROW COL. STREAM  RCH.  FLOW INTO     FLOW TO   FLOW OUT OF   OVRLND.     DIRECT     STREAM       STREAM     STREAM     STREAM   STREAMBED  STREAMBED
                SEG.NO.  NO.  STRM. RCH.    AQUIFER    STRM. RCH.    RUNOFF     PRECIP       ET          HEAD       DEPTH      WIDTH   CONDCTNC.   GRADIENT

   1    1    1     1     1    2.5000E+01  1.1384E+00   2.3862E+01  0.000E+00  0.000E+00  0.000E+00  1.09422E+03  1.172E+00  1.295E+01  5.827E-01  6.513E-01
   1    2    2     1     2    2.3862E+01  2.6227E+00   2.1239E+01  0.000E+00  0.000E+00  0.000E+00  1.08920E+03  1.142E+00  1.256E+01  8.792E-01  9.943E-01
   1    3    3     1     3    2.1239E+01  2.9326E+00   1.8306E+01  0.000E+00  0.000E+00  0.000E+00  1.08352E+03  1.096E+00  1.193E+01  7.159E-01  1.365E+00
   1    3    4     1     4    1.8306E+01  2.4925E+00   1.5814E+01  0.000E+00  0.000E+00  0.000E+00  1.07846E+03  1.051E+00  1.109E+01  6.153E-01  1.350E+00
   1    4    5     2     1    5.8137E+00  2.6756E+00   3.1382E+00  0.000E+00  0.000E+00  0.000E+00  1.07236E+03  4.302E-01  1.200E+01  7.800E-01  1.143E+00
   1    5    6     2     2    3.1382E+00  1.9665E+00   1.1717E+00  0.000E+00  0.000E+00  0.000E+00  1.06679E+03  2.775E-01  1.200E+01  6.000E-01  1.092E+00
   1    6    6     2     3    1.1717E+00  1.1717E+00   0.0000E+00  0.000E+00  0.000E+00  0.000E+00  1.06184E+03  4.331E-02  1.200E+01  6.000E-01  1.014E+00
   1    7    6     2     4    0.0000E+00  0.0000E+00   0.0000E+00  0.000E+00  0.000E+00  0.000E+00  1.05708E+03  0.000E+00  1.200E+01  6.000E-01  1.000E+00
   1    8    6     2     5    0.0000E+00  0.0000E+00   0.0000E+00  0.000E+00  0.000E+00  0.000E+00  1.05236E+03  0.000E+00  1.200E+01  6.000E-01  1.000E+00
   1    3    5     3     1    1.0000E+01  1.1068E+00   8.8932E+00  0.000E+00  0.000E+00  0.000E+00  1.07555E+03  1.909E+00  9.636E+00  7.227E-01  7.657E-01
   1    3    6     3     2    8.8932E+00  8.6661E-01   8.0266E+00  0.000E+00  0.000E+00  0.000E+00  1.07264E+03  1.727E+00  8.909E+00  6.682E-01  6.485E-01
   1    3    7     3     3    8.0266E+00  6.0713E-01   7.4194E+00  0.000E+00  0.000E+00  0.000E+00  1.06987E+03  1.555E+00  8.218E+00  5.547E-01  5.472E-01
   1    4    8     3     4    7.4194E+00  1.5496E+00   5.8698E+00  0.000E+00  0.000E+00  0.000E+00  1.06682E+03  1.364E+00  7.455E+00  6.709E-01  1.155E+00
   1    5    8     3     5    5.8698E+00  1.5056E+00   4.3643E+00  0.000E+00  0.000E+00  0.000E+00  1.06362E+03  1.164E+00  6.655E+00  4.991E-01  1.508E+00
   1    6    8     3     6    4.3643E+00  5.5980E-01   3.8045E+00  0.000E+00  0.000E+00  0.000E+00  1.06158E+03  1.036E+00  6.145E+00  1.844E-01  1.518E+00
   1    5   10     4     1    1.0000E+01  9.0525E-01   9.0947E+00  0.000E+00  0.000E+00  0.000E+00  1.07835E+03  6.210E-01  1.000E+01  2.500E-01  1.207E+00
   1    5    9     4     2    9.0947E+00  1.7835E+00   7.3113E+00  0.000E+00  0.000E+00  0.000E+00  1.07148E+03  5.670E-01  1.000E+01  5.000E-01  1.189E+00
   1    6    8     4     3    7.3113E+00  1.2257E+00   6.0855E+00  0.000E+00  0.000E+00  0.000E+00  1.06368E+03  5.021E-01  1.000E+01  3.500E-01  1.167E+00
   1    6    8     5     1    9.8900E+00  3.2932E-01   9.5607E+00  0.000E+00  0.000E+00  0.000E+00  1.05867E+03  6.651E-01  1.488E+01  5.951E-01  1.845E-01
   1    7    7     5     2    9.5607E+00  1.3668E+00   8.1939E+00  0.000E+00  0.000E+00  0.000E+00  1.05414E+03  6.442E-01  1.408E+01  7.042E-01  6.469E-01
   1    8    7     5     3    8.1939E+00  1.0812E+00   7.1127E+00  0.000E+00  0.000E+00  0.000E+00  1.04986E+03  6.116E-01  1.289E+01  4.510E-01  7.992E-01
   1    8    6     5     4    7.1127E+00  1.0539E+00   6.0587E+00  0.000E+00  0.000E+00  0.000E+00  1.04683E+03  5.803E-01  1.177E+01  2.944E-01  1.193E+00
   1    9    6     6     1    6.0587E+00  1.9687E+00   4.0900E+00  0.000E+00  0.000E+00  0.000E+00  1.04320E+03  4.690E-01  1.200E+01  6.000E-01  1.094E+00
   1   10    7     6     2    4.0900E+00  1.2138E+00   2.8762E+00  0.000E+00  0.000E+00  0.000E+00  1.03856E+03  3.742E-01  1.200E+01  6.000E-01  6.744E-01
   1   11    7     6     3    2.8762E+00  9.9374E-01   1.8824E+00  0.000E+00  0.000E+00  0.000E+00  1.03393E+03  2.977E-01  1.200E+01  6.000E-01  5.521E-01
   1   12    7     6     4    1.8824E+00  6.3423E-01   1.2482E+00  0.000E+00  0.000E+00  0.000E+00  1.02932E+03  2.316E-01  1.200E+01  6.000E-01  3.523E-01
   1   13    7     6     5    1.2482E+00 -7.9007E-01   2.0383E+00  0.000E+00  0.000E+00  0.000E+00  1.02615E+03  2.385E-01  1.200E+01  2.400E-01 -1.097E+00
   1   14    9     7     1    1.5000E+02  1.7396E+00   1.4826E+02  0.000E+00  0.000E+00  0.000E+00  1.03987E+03  2.287E+00  5.529E+01  5.592E+00  1.037E-01
   1   13    8     7     2    1.4826E+02  1.7386E+00   1.4652E+02  0.000E+00  0.000E+00  0.000E+00  1.03478E+03  2.277E+00  5.525E+01  6.147E+00  9.428E-02
   1   13    7     7     3    1.4652E+02  1.3897E+00   1.4513E+02  0.000E+00  0.000E+00  0.000E+00  1.02969E+03  2.269E+00  5.521E+01  5.584E+00  8.296E-02
   1   13    6     8     1    1.4717E+02  1.8254E-01   1.4699E+02  0.000E+00  0.000E+00  0.000E+00  1.02467E+03  2.796E+00  4.054E+01  4.132E+00  1.473E-02
   1   13    5     8     2    1.4699E+02 -3.9183E-01   1.4738E+02  0.000E+00  0.000E+00  0.000E+00  1.01842E+03  2.797E+00  4.055E+01  4.133E+00 -3.160E-02
   1   13    4     8     3    1.4738E+02 -1.2109E+00   1.4859E+02  0.000E+00  0.000E+00  0.000E+00  1.01218E+03  2.803E+00  4.064E+01  4.141E+00 -9.747E-02
   1   13    3     8     4    1.4859E+02 -1.8886E+00   1.5048E+02  0.000E+00  0.000E+00  0.000E+00  1.00594E+03  2.814E+00  4.080E+01  4.157E+00 -1.514E-01
   1   13    2     8     5    1.5048E+02 -1.9166E+00   1.5240E+02  0.000E+00  0.000E+00  0.000E+00  9.99702E+02  2.827E+00  4.099E+01  4.177E+00 -1.529E-01
   1   13    1     8     6    1.5240E+02 -1.9571E+00   1.5435E+02  0.000E+00  0.000E+00  0.000E+00  9.94715E+02  2.840E+00  4.119E+01  2.518E+00 -2.591E-01



 UBDSV3 SAVING "           GW ET" ON UNIT  61 AT TIME STEP 5, STRESS PERIOD 6
 UBDSV3 SAVING "    UZF RECHARGE" ON UNIT  61 AT TIME STEP 5, STRESS PERIOD 6
 UBDSV3 SAVING " SURFACE LEAKAGE" ON UNIT  61 AT TIME STEP 5, STRESS PERIOD 6
 UBDSV3 SAVING "       HORT+DUNN" ON UNIT  61 AT TIME STEP 5, STRESS PERIOD 6
 UBDSV3 SAVING "  STORAGE CHANGE" ON UNIT  61 AT TIME STEP 5, STRESS PERIOD 6


UNSATURATED ZONE PACKAGE VOLUMETRIC BUDGET FOR  TIME STEP     5 STRESS PERIOD    6
  ------------------------------------------------------------------------------



     CUMULATIVE VOLUMES      L**3       RATES FOR THIS TIME STEP      L**3/T
     ------------------                 ------------------------

           IN:                                      IN:
           ---                                      ---
        INFILTRATION =  1022777463.8193          INFILTRATION =          84.7500

          OUT:                                     OUT:
          ----                                     ----
              UZF ET =  1094879308.2676                UZF ET =          63.1229
        UZF RECHARGE =   185168860.8810          UZF RECHARGE =           7.8636

            IN - OUT =  -257270705.3292              IN - OUT =          13.7635

          STORAGE:                                 STORAGE:
          --------                                 --------
      STORAGE CHANGE =  -257037872.1359        STORAGE CHANGE =          13.7635

 PERCENT DISCREPANCY IS DIFFERENCE BETWEEN IN-OUT MINUS CHANGE IN STORAGE
 DIVIDED BY THE AVERAGE OF IN AND OUT TIMES 100

 PERCENT DISCREPANCY =          -0.00     PERCENT DISCREPANCY =           0.00






1
  VOLUMETRIC BUDGET FOR ENTIRE MODEL AT END OF TIME STEP    5, STRESS PERIOD   6
  ------------------------------------------------------------------------------

     CUMULATIVE VOLUMES      L**3       RATES FOR THIS TIME STEP      L**3/T
     ------------------                 ------------------------

           IN:                                      IN:
           ---                                      ---
             STORAGE     =    50864608.0000               STORAGE     =           4.0877
       CONSTANT HEAD     =           0.0000         CONSTANT HEAD     =           0.0000
               WELLS     =           0.0000                 WELLS     =           0.0000
     HEAD DEP BOUNDS     =     2820211.2500       HEAD DEP BOUNDS     =           0.2069
      STREAM LEAKAGE     =   542769728.0000        STREAM LEAKAGE     =          38.8022
        UZF RECHARGE     =   185168896.0000          UZF RECHARGE     =           7.8636
               GW ET     =           0.0000                 GW ET     =           0.0000
     SURFACE LEAKAGE     =           0.0000       SURFACE LEAKAGE     =           0.0000

                TOTAL IN =   781623424.0000                  TOTAL IN =          50.9604

          OUT:                                     OUT:
          ----                                     ----
             STORAGE     =   177889072.0000               STORAGE     =          22.0201
       CONSTANT HEAD     =           0.0000         CONSTANT HEAD     =           0.0000
               WELLS     =   236519984.0000                 WELLS     =           0.0000
     HEAD DEP BOUNDS     =     3860437.2500       HEAD DEP BOUNDS     =           0.2847
      STREAM LEAKAGE     =   111519552.0000        STREAM LEAKAGE     =           8.1550
        UZF RECHARGE     =           0.0000          UZF RECHARGE     =           0.0000
               GW ET     =   251830896.0000                 GW ET     =          20.5010
     SURFACE LEAKAGE     =           0.0000       SURFACE LEAKAGE     =           0.0000

               TOTAL OUT =   781619968.0000                 TOTAL OUT =          50.9609

                IN - OUT =        3456.0000                  IN - OUT =      -5.0735E-04

     PERCENT DISCREPANCY =           0.00         PERCENT DISCREPANCY =          -0.00






         TIME SUMMARY AT END OF TIME STEP    5 IN STRESS PERIOD    6
                    SECONDS     MINUTES      HOURS       DAYS        YEARS
                    -----------------------------------------------------------
   TIME STEP LENGTH 1.21100E+05  2018.3      33.639      1.4016     3.83743E-03
 STRESS PERIOD TIME 5.04972E+05  8416.2      140.27      5.8446     1.60016E-02
         TOTAL TIME 1.36450E+07 2.27416E+05  3790.3      157.93     0.43238    
1
 
 SOLVING FOR HEAD 
                                                   Max.-Head-Change                         Max.-Flux-Residual
  Residual-Control   Outer-Iter.   Inner-Iter.     Column Row Layer    Maximum-Head-Change  Column Row Layer    Maximum-Flux-Residual          L2-NORM 
          0                 1           2             5    8     1       0.5597003440E-01       5    8    1         0.1916921086E+01      0.6068811767E+01
          0                 2           2             6    3     1      -0.8655287919E-02       5    8    1        -0.1916935387E+00      0.6431099104E+00
          0                 3           2             6    3     1      -0.2339138733E-02       6    3    1        -0.4183817393E-01      0.7043638342E-01
          0                 4           1             6    3     1      -0.6320413443E-03       6    3    1        -0.1130659984E-01      0.1606759778E-01
          0                 5           1             6    3     1      -0.1707546885E-03       6    3    1        -0.3054890395E-02      0.4317203086E-02
          0                 6           1             6    3     1      -0.4612734594E-04       6    3    1        -0.8252954644E-03      0.1173053908E-02

    ------------------------------------------------
       NWT REQUIRED            6 OUTER ITERATIONS 
       AND A TOTAL OF          9 INNER ITERATIONS.
    ------------------------------------------------

 NO OUTPUT CONTROL FOR STRESS PERIOD    6   TIME STEP    6
 
 SOLVING FOR HEAD 
                                                   Max.-Head-Change                         Max.-Flux-Residual
  Residual-Control   Outer-Iter.   Inner-Iter.     Column Row Layer    Maximum-Head-Change  Column Row Layer    Maximum-Flux-Residual          L2-NORM 
          0                 1           2             5    8     1       0.6132397629E-01       5    8    1         0.1910040665E+01      0.6037972929E+01
          0                 2           2             6    3     1      -0.8732380701E-02       5    8    1        -0.1910057017E+00      0.6345005681E+00
          0                 3           2             6    3     1      -0.2328508125E-02       6    3    1        -0.3803304853E-01      0.6565139423E-01
          0                 4           1             6    3     1      -0.6207667001E-03       6    3    1        -0.1014095772E-01      0.1440075297E-01
          0                 5           1             6    3     1      -0.1654662923E-03       6    3    1        -0.2703362771E-02      0.3815945355E-02
          0                 6           1             6    3     1      -0.4410061362E-04       6    3    1        -0.7205582130E-03      0.1023260646E-02

    ------------------------------------------------
       NWT REQUIRED            6 OUTER ITERATIONS 
       AND A TOTAL OF          9 INNER ITERATIONS.
    ------------------------------------------------

 NO OUTPUT CONTROL FOR STRESS PERIOD    6   TIME STEP    7
 
 SOLVING FOR HEAD 
                                                   Max.-Head-Change                         Max.-Flux-Residual
  Residual-Control   Outer-Iter.   Inner-Iter.     Column Row Layer    Maximum-Head-Change  Column Row Layer    Maximum-Flux-Residual          L2-NORM 
          0                 1           2             5    8     1       0.6716406389E-01       5    8    1         0.1902504842E+01      0.5994424579E+01
          0                 2           2             6    3     1      -0.8727541091E-02       4    8    1        -0.1890456320E+00      0.6199366393E+00
          0                 3           2             6    3     1      -0.2310085580E-02       6    3    1        -0.3457490827E-01      0.6195973054E-01
          0                 4           1             5    3     1       0.8772138840E-03       5    3    1         0.1316376584E-01      0.1646485821E-01
          0                 5           1             5    3     1       0.3375621213E-03       5    3    1         0.5063696041E-02      0.5657427992E-02
          0                 6           1             5    3     1       0.1299403464E-03       5    3    1         0.1948758371E-02      0.2056094538E-02
          0                 7           1             5    3     1       0.5003012643E-04       5    3    1         0.7501953110E-03      0.7705031923E-03

    ------------------------------------------------
       NWT REQUIRED            7 OUTER ITERATIONS 
       AND A TOTAL OF         10 INNER ITERATIONS.
    ------------------------------------------------

 NO OUTPUT CONTROL FOR STRESS PERIOD    6   TIME STEP    8
 
 SOLVING FOR HEAD 
                                                   Max.-Head-Change                         Max.-Flux-Residual
  Residual-Control   Outer-Iter.   Inner-Iter.     Column Row Layer    Maximum-Head-Change  Column Row Layer    Maximum-Flux-Residual          L2-NORM 
          0                 1           2             4    7     1       0.7469175285E-01       4    7    1         0.1919812021E+01      0.5981702729E+01
          0                 2           2             5    3     1       0.1532569727E-01       5    3    1         0.2100750517E+00      0.3950085596E+00
          0                 3           2             5    3     1       0.5833534258E-02       5    3    1         0.7995653025E-01      0.8651676942E-01
          0                 4           1             5    3     1       0.2220406440E-02       5    3    1         0.3043506406E-01      0.3072921225E-01
          0                 5           1             5    3     1       0.8451424723E-03       5    3    1         0.1158432387E-01      0.1160886909E-01
          0                 6           1             5    3     1       0.3216810294E-03       5    3    1         0.4409288687E-02      0.4412831696E-02
          0                 7           1             5    3     1       0.1224389310E-03       5    3    1         0.1678276447E-02      0.1679375779E-02
          0                 8           1             5    3     1       0.4660285130E-04       5    3    1         0.6387889078E-03      0.6396750997E-03

    ------------------------------------------------
       NWT REQUIRED            8 OUTER ITERATIONS 
       AND A TOTAL OF         11 INNER ITERATIONS.
    ------------------------------------------------

 NO OUTPUT CONTROL FOR STRESS PERIOD    6   TIME STEP    9
 
 SOLVING FOR HEAD 
                                                   Max.-Head-Change                         Max.-Flux-Residual
  Residual-Control   Outer-Iter.   Inner-Iter.     Column Row Layer    Maximum-Head-Change  Column Row Layer    Maximum-Flux-Residual          L2-NORM 
          0                 1           2             4    7     1       0.8290891522E-01       4    7    1         0.1937591716E+01      0.6105175959E+01
          0                 2           2             6    3     1       0.1590698915E-01       6    3    1         0.1987537208E+00      0.5887334995E+00
          0                 3           2             6    3     1       0.5939900108E-02       6    3    1         0.7418619979E-01      0.1118915120E+00
          0                 4           2             6    3     1       0.2218628532E-02       6    3    1         0.2770544000E-01      0.3843478678E-01
          0                 5           1             6    3     1       0.8288247511E-03       6    3    1         0.1034875503E-01      0.1431421991E-01
          0                 6           1             6    3     1       0.3096594622E-03       6    3    1         0.3866172076E-02      0.5363743503E-02
          0                 7           1             6    3     1       0.1156998492E-03       6    3    1         0.1444476726E-02      0.2011462152E-02
          0                 8           1             6    3     1       0.4323137270E-04       6    3    1         0.5397145420E-03      0.7546952981E-03

    ------------------------------------------------
       NWT REQUIRED            8 OUTER ITERATIONS 
       AND A TOTAL OF         12 INNER ITERATIONS.
    ------------------------------------------------

 OUTPUT CONTROL FOR STRESS PERIOD    6   TIME STEP   10
    PRINT BUDGET
    SAVE BUDGET

  HEAD DEP BOUNDS   PERIOD    6   STEP    10
 BOUNDARY      1   LAYER   1   ROW    13   COL     1   RATE   -0.283887    
 BOUNDARY      2   LAYER   1   ROW    14   COL     9   RATE    0.206840    



 STREAM LISTING     PERIOD      6   STEP       10

 LAYER ROW COL. STREAM  RCH.  FLOW INTO     FLOW TO   FLOW OUT OF   OVRLND.     DIRECT     STREAM       STREAM     STREAM     STREAM   STREAMBED  STREAMBED
                SEG.NO.  NO.  STRM. RCH.    AQUIFER    STRM. RCH.    RUNOFF     PRECIP       ET          HEAD       DEPTH      WIDTH   CONDCTNC.   GRADIENT

   1    1    1     1     1    2.5000E+01  1.1445E+00   2.3856E+01  0.000E+00  0.000E+00  0.000E+00  1.09422E+03  1.172E+00  1.295E+01  5.827E-01  6.547E-01
   1    2    2     1     2    2.3856E+01  2.6323E+00   2.1223E+01  0.000E+00  0.000E+00  0.000E+00  1.08920E+03  1.142E+00  1.256E+01  8.791E-01  9.981E-01
   1    3    3     1     3    2.1223E+01  2.9314E+00   1.8292E+01  0.000E+00  0.000E+00  0.000E+00  1.08351E+03  1.096E+00  1.193E+01  7.156E-01  1.365E+00
   1    3    4     1     4    1.8292E+01  2.4913E+00   1.5801E+01  0.000E+00  0.000E+00  0.000E+00  1.07846E+03  1.050E+00  1.108E+01  6.151E-01  1.350E+00
   1    4    5     2     1    5.8006E+00  2.6750E+00   3.1256E+00  0.000E+00  0.000E+00  0.000E+00  1.07236E+03  4.295E-01  1.200E+01  7.800E-01  1.143E+00
   1    5    6     2     2    3.1256E+00  1.9659E+00   1.1597E+00  0.000E+00  0.000E+00  0.000E+00  1.06679E+03  2.765E-01  1.200E+01  6.000E-01  1.092E+00
   1    6    6     2     3    1.1597E+00  1.1597E+00   0.0000E+00  0.000E+00  0.000E+00  0.000E+00  1.06184E+03  4.305E-02  1.200E+01  6.000E-01  1.014E+00
   1    7    6     2     4    0.0000E+00  0.0000E+00   0.0000E+00  0.000E+00  0.000E+00  0.000E+00  1.05708E+03  0.000E+00  1.200E+01  6.000E-01  1.000E+00
   1    8    6     2     5    0.0000E+00  0.0000E+00   0.0000E+00  0.000E+00  0.000E+00  0.000E+00  1.05236E+03  0.000E+00  1.200E+01  6.000E-01  1.000E+00
   1    3    5     3     1    1.0000E+01  1.0506E+00   8.9494E+00  0.000E+00  0.000E+00  0.000E+00  1.07555E+03  1.909E+00  9.636E+00  7.227E-01  7.268E-01
   1    3    6     3     2    8.9494E+00  9.0804E-01   8.0414E+00  0.000E+00  0.000E+00  0.000E+00  1.07264E+03  1.727E+00  8.909E+00  6.682E-01  6.795E-01
   1    3    7     3     3    8.0414E+00  7.1874E-01   7.3226E+00  0.000E+00  0.000E+00  0.000E+00  1.06987E+03  1.555E+00  8.218E+00  5.547E-01  6.478E-01
   1    4    8     3     4    7.3226E+00  1.5422E+00   5.7804E+00  0.000E+00  0.000E+00  0.000E+00  1.06682E+03  1.364E+00  7.455E+00  6.709E-01  1.149E+00
   1    5    8     3     5    5.7804E+00  1.5064E+00   4.2740E+00  0.000E+00  0.000E+00  0.000E+00  1.06362E+03  1.164E+00  6.655E+00  4.991E-01  1.509E+00
   1    6    8     3     6    4.2740E+00  5.5980E-01   3.7142E+00  0.000E+00  0.000E+00  0.000E+00  1.06158E+03  1.036E+00  6.145E+00  1.844E-01  1.518E+00
   1    5   10     4     1    1.0000E+01  9.0525E-01   9.0947E+00  0.000E+00  0.000E+00  0.000E+00  1.07835E+03  6.210E-01  1.000E+01  2.500E-01  1.207E+00
   1    5    9     4     2    9.0947E+00  1.7835E+00   7.3113E+00  0.000E+00  0.000E+00  0.000E+00  1.07148E+03  5.670E-01  1.000E+01  5.000E-01  1.189E+00
   1    6    8     4     3    7.3113E+00  1.2257E+00   6.0855E+00  0.000E+00  0.000E+00  0.000E+00  1.06368E+03  5.021E-01  1.000E+01  3.500E-01  1.167E+00
   1    6    8     5     1    9.7998E+00  3.2933E-01   9.4705E+00  0.000E+00  0.000E+00  0.000E+00  1.05866E+03  6.629E-01  1.479E+01  5.918E-01  1.855E-01
   1    7    7     5     2    9.4705E+00  1.3660E+00   8.1045E+00  0.000E+00  0.000E+00  0.000E+00  1.05414E+03  6.419E-01  1.400E+01  7.000E-01  6.505E-01
   1    8    7     5     3    8.1045E+00  1.0697E+00   7.0348E+00  0.000E+00  0.000E+00  0.000E+00  1.04986E+03  6.093E-01  1.280E+01  4.480E-01  7.959E-01
   1    8    6     5     4    7.0348E+00  1.0461E+00   5.9886E+00  0.000E+00  0.000E+00  0.000E+00  1.04683E+03  5.780E-01  1.169E+01  2.924E-01  1.193E+00
   1    9    6     6     1    5.9886E+00  1.9664E+00   4.0223E+00  0.000E+00  0.000E+00  0.000E+00  1.04319E+03  4.652E-01  1.200E+01  6.000E-01  1.092E+00
   1   10    7     6     2    4.0223E+00  1.2130E+00   2.8093E+00  0.000E+00  0.000E+00  0.000E+00  1.03855E+03  3.699E-01  1.200E+01  6.000E-01  6.739E-01
   1   11    7     6     3    2.8093E+00  9.7223E-01   1.8371E+00  0.000E+00  0.000E+00  0.000E+00  1.03393E+03  2.935E-01  1.200E+01  6.000E-01  5.401E-01
   1   12    7     6     4    1.8371E+00  6.0287E-01   1.2342E+00  0.000E+00  0.000E+00  0.000E+00  1.02932E+03  2.289E-01  1.200E+01  6.000E-01  3.349E-01
   1   13    7     6     5    1.2342E+00 -7.8610E-01   2.0203E+00  0.000E+00  0.000E+00  0.000E+00  1.02615E+03  2.370E-01  1.200E+01  2.400E-01 -1.092E+00
   1   14    9     7     1    1.5000E+02  1.7364E+00   1.4826E+02  0.000E+00  0.000E+00  0.000E+00  1.03987E+03  2.287E+00  5.529E+01  5.592E+00  1.035E-01
   1   13    8     7     2    1.4826E+02  1.7339E+00   1.4653E+02  0.000E+00  0.000E+00  0.000E+00  1.03478E+03  2.277E+00  5.525E+01  6.147E+00  9.403E-02
   1   13    7     7     3    1.4653E+02  1.4887E+00   1.4504E+02  0.000E+00  0.000E+00  0.000E+00  1.02969E+03  2.269E+00  5.521E+01  5.584E+00  8.887E-02
   1   13    6     8     1    1.4706E+02  2.9661E-01   1.4676E+02  0.000E+00  0.000E+00  0.000E+00  1.02467E+03  2.795E+00  4.053E+01  4.130E+00  2.394E-02
   1   13    5     8     2    1.4676E+02 -3.5670E-01   1.4712E+02  0.000E+00  0.000E+00  0.000E+00  1.01842E+03  2.795E+00  4.053E+01  4.130E+00 -2.879E-02
   1   13    4     8     3    1.4712E+02 -1.1666E+00   1.4829E+02  0.000E+00  0.000E+00  0.000E+00  1.01218E+03  2.801E+00  4.061E+01  4.138E+00 -9.397E-02
   1   13    3     8     4    1.4829E+02 -1.8419E+00   1.5013E+02  0.000E+00  0.000E+00  0.000E+00  1.00594E+03  2.811E+00  4.076E+01  4.154E+00 -1.478E-01
   1   13    2     8     5    1.5013E+02 -1.9060E+00   1.5204E+02  0.000E+00  0.000E+00  0.000E+00  9.99699E+02  2.824E+00  4.095E+01  4.173E+00 -1.522E-01
   1   13    1     8     6    1.5204E+02 -1.9069E+00   1.5394E+02  0.000E+00  0.000E+00  0.000E+00  9.94713E+02  2.838E+00  4.115E+01  2.516E+00 -2.527E-01



 UBDSV3 SAVING "           GW ET" ON UNIT  61 AT TIME STEP 10, STRESS PERIOD 6
 UBDSV3 SAVING "    UZF RECHARGE" ON UNIT  61 AT TIME STEP 10, STRESS PERIOD 6
 UBDSV3 SAVING " SURFACE LEAKAGE" ON UNIT  61 AT TIME STEP 10, STRESS PERIOD 6
 UBDSV3 SAVING "       HORT+DUNN" ON UNIT  61 AT TIME STEP 10, STRESS PERIOD 6
 UBDSV3 SAVING "  STORAGE CHANGE" ON UNIT  61 AT TIME STEP 10, STRESS PERIOD 6


UNSATURATED ZONE PACKAGE VOLUMETRIC BUDGET FOR  TIME STEP    10 STRESS PERIOD    6
  ------------------------------------------------------------------------------



     CUMULATIVE VOLUMES      L**3       RATES FOR THIS TIME STEP      L**3/T
     ------------------                 ------------------------

           IN:                                      IN:
           ---                                      ---
        INFILTRATION =  1091701403.6514          INFILTRATION =          84.7500

          OUT:                                     OUT:
          ----                                     ----
              UZF ET =  1147298817.7939                UZF ET =          65.2251
        UZF RECHARGE =   194183611.7093          UZF RECHARGE =          15.5671

            IN - OUT =  -249781025.8519              IN - OUT =           3.9578

          STORAGE:                                 STORAGE:
          --------                                 --------
      STORAGE CHANGE =  -249582645.5135        STORAGE CHANGE =           3.9618

 PERCENT DISCREPANCY IS DIFFERENCE BETWEEN IN-OUT MINUS CHANGE IN STORAGE
 DIVIDED BY THE AVERAGE OF IN AND OUT TIMES 100

 PERCENT DISCREPANCY =          -0.00     PERCENT DISCREPANCY =          -0.00






1
  VOLUMETRIC BUDGET FOR ENTIRE MODEL AT END OF TIME STEP   10, STRESS PERIOD   6
  ------------------------------------------------------------------------------

     CUMULATIVE VOLUMES      L**3       RATES FOR THIS TIME STEP      L**3/T
     ------------------                 ------------------------

           IN:                                      IN:
           ---                                      ---
             STORAGE     =    52968768.0000               STORAGE     =           1.6152
       CONSTANT HEAD     =           0.0000         CONSTANT HEAD     =           0.0000
               WELLS     =           0.0000                 WELLS     =           0.0000
     HEAD DEP BOUNDS     =     2988434.2500       HEAD DEP BOUNDS     =           0.2068
      STREAM LEAKAGE     =   574477120.0000        STREAM LEAKAGE     =          39.0214
        UZF RECHARGE     =   194183632.0000          UZF RECHARGE     =          15.5671
               GW ET     =           0.0000                 GW ET     =           0.0000
     SURFACE LEAKAGE     =           0.0000       SURFACE LEAKAGE     =           0.0000

                TOTAL IN =   824617920.0000                  TOTAL IN =          56.4106

          OUT:                                     OUT:
          ----                                     ----
             STORAGE     =   197533472.0000               STORAGE     =          27.8089
       CONSTANT HEAD     =           0.0000         CONSTANT HEAD     =           0.0000
               WELLS     =   236519984.0000                 WELLS     =           0.0000
     HEAD DEP BOUNDS     =     4091557.7500       HEAD DEP BOUNDS     =           0.2839
      STREAM LEAKAGE     =   118051904.0000        STREAM LEAKAGE     =           7.9642
        UZF RECHARGE     =           0.0000          UZF RECHARGE     =           0.0000
               GW ET     =   268417472.0000                 GW ET     =          20.3532
     SURFACE LEAKAGE     =           0.0000       SURFACE LEAKAGE     =           0.0000

               TOTAL OUT =   824614336.0000                 TOTAL OUT =          56.4102

                IN - OUT =        3584.0000                  IN - OUT =       4.3869E-04

     PERCENT DISCREPANCY =           0.00         PERCENT DISCREPANCY =           0.00






         TIME SUMMARY AT END OF TIME STEP   10 IN STRESS PERIOD    6
                    SECONDS     MINUTES      HOURS       DAYS        YEARS
                    -----------------------------------------------------------
   TIME STEP LENGTH 1.95033E+05  3250.6      54.176      2.2573     6.18023E-03
 STRESS PERIOD TIME 1.31823E+06  21971.      366.18      15.257     4.17723E-02
         TOTAL TIME 1.44582E+07 2.40970E+05  4016.2      167.34     0.45815    
1
 
 SOLVING FOR HEAD 
                                                   Max.-Head-Change                         Max.-Flux-Residual
  Residual-Control   Outer-Iter.   Inner-Iter.     Column Row Layer    Maximum-Head-Change  Column Row Layer    Maximum-Flux-Residual          L2-NORM 
          0                 1           2             4    7     1       0.9087749839E-01       4    7    1         0.1931209509E+01      0.6048473934E+01
          0                 2           2             6    3     1       0.1539261334E-01       6    3    1         0.1758779091E+00      0.5673968291E+00
          0                 3           2             6    3     1       0.5734647897E-02       6    3    1         0.6551205579E-01      0.9982777829E-01
          0                 4           2             6    3     1       0.2136316514E-02       6    3    1         0.2440843098E-01      0.3366822455E-01
          0                 5           1             6    3     1       0.7958383662E-03       6    3    1         0.9092498216E-02      0.1250978496E-01
          0                 6           1             6    3     1       0.2964787827E-03       6    3    1         0.3387248061E-02      0.4678672379E-02
          0                 7           1             6    3     1       0.1104521436E-03       6    3    1         0.1261877413E-02      0.1750980704E-02
          0                 8           1             6    3     1       0.4114973600E-04       6    3    1         0.4701111102E-03      0.6556167413E-03

    ------------------------------------------------
       NWT REQUIRED            8 OUTER ITERATIONS 
       AND A TOTAL OF         12 INNER ITERATIONS.
    ------------------------------------------------

 NO OUTPUT CONTROL FOR STRESS PERIOD    6   TIME STEP   11
 
 SOLVING FOR HEAD 
                                                   Max.-Head-Change                         Max.-Flux-Residual
  Residual-Control   Outer-Iter.   Inner-Iter.     Column Row Layer    Maximum-Head-Change  Column Row Layer    Maximum-Flux-Residual          L2-NORM 
          0                 1           2             4    7     1       0.9957728332E-01       4    7    1         0.1924277946E+01      0.6007917576E+01
          0                 2           2             6    3     1       0.1454336678E-01       4    7    1         0.1649265262E+00      0.5579239347E+00
          0                 3           2             6    3     1       0.5343882036E-02       6    3    1         0.5583267819E-01      0.9245831816E-01
          0                 4           2             6    3     1       0.1962888759E-02       6    3    1         0.2051568927E-01      0.2992817787E-01
          0                 5           1             6    3     1       0.7208597065E-03       5    3    1         0.7557844363E-02      0.1089107230E-01
          0                 6           1             5    3     1       0.2690923678E-03       5    3    1         0.2824531400E-02      0.4007845618E-02
          0                 7           1             5    3     1       0.1005535354E-03       5    3    1         0.1055507589E-02      0.1479107136E-02
          0                 8           1             5    3     1       0.3757241000E-04       5    3    1         0.3944139557E-03      0.5468790689E-03

    ------------------------------------------------
       NWT REQUIRED            8 OUTER ITERATIONS 
       AND A TOTAL OF         12 INNER ITERATIONS.
    ------------------------------------------------

 NO OUTPUT CONTROL FOR STRESS PERIOD    6   TIME STEP   12
 
 SOLVING FOR HEAD 
                                                   Max.-Head-Change                         Max.-Flux-Residual
  Residual-Control   Outer-Iter.   Inner-Iter.     Column Row Layer    Maximum-Head-Change  Column Row Layer    Maximum-Flux-Residual          L2-NORM 
          0                 1           2             4    7     1       0.1090663522E+00       4    7    1         0.1916691813E+01      0.5953677868E+01
          0                 2           2             6    3     1       0.1401482651E-01       4    7    1         0.1641555085E+00      0.5407558156E+00
          0                 3           2             6    3     1       0.5104663880E-02       6    3    1         0.4886910727E-01      0.8143432378E-01
          0                 4           2             6    3     1       0.1858492578E-02       6    3    1         0.1779999429E-01      0.2518533309E-01
          0                 5           1             6    3     1       0.6764769361E-03       6    3    1         0.6479797665E-02      0.9033547989E-02
          0                 6           1             6    3     1       0.2461940663E-03       6    3    1         0.2358523600E-02      0.3283479694E-02
          0                 7           1             6    3     1       0.8958880254E-04       6    3    1         0.8583215408E-03      0.1196837125E-02

    ------------------------------------------------
       NWT REQUIRED            7 OUTER ITERATIONS 
       AND A TOTAL OF         11 INNER ITERATIONS.
    ------------------------------------------------

 NO OUTPUT CONTROL FOR STRESS PERIOD    6   TIME STEP   13
 
 SOLVING FOR HEAD 
                                                   Max.-Head-Change                         Max.-Flux-Residual
  Residual-Control   Outer-Iter.   Inner-Iter.     Column Row Layer    Maximum-Head-Change  Column Row Layer    Maximum-Flux-Residual          L2-NORM 
          0                 1           2             4    7     1       0.1194059515E+00       4    7    1         0.1908354631E+01      0.5899700937E+01
          0                 2           2             6    3     1       0.1299468560E-01       4    7    1         0.1633066457E+00      0.5268523259E+00
          0                 3           2             6    3     1       0.4693939120E-02       6    3    1         0.4119112951E-01      0.7262737769E-01
          0                 4           2             6    3     1       0.1694607695E-02       6    3    1         0.1487889488E-01      0.2133064290E-01
          0                 5           1             6    3     1       0.6116069766E-03       6    3    1         0.5370785533E-02      0.7552587874E-02
          0                 6           1             6    3     1       0.2206945649E-03       6    3    1         0.1938311425E-02      0.2720557423E-02
          0                 7           1             6    3     1       0.7962537001E-04       6    3    1         0.6993980435E-03      0.9833990243E-03

    ------------------------------------------------
       NWT REQUIRED            7 OUTER ITERATIONS 
       AND A TOTAL OF         11 INNER ITERATIONS.
    ------------------------------------------------

 NO OUTPUT CONTROL FOR STRESS PERIOD    6   TIME STEP   14
 
 SOLVING FOR HEAD 
                                                   Max.-Head-Change                         Max.-Flux-Residual
  Residual-Control   Outer-Iter.   Inner-Iter.     Column Row Layer    Maximum-Head-Change  Column Row Layer    Maximum-Flux-Residual          L2-NORM 
          0                 1           2             4    7     1       0.1306604662E+00       4    7    1         0.1899185679E+01      0.5843348909E+01
          0                 2           2             6    3     1       0.1199146004E-01       4    7    1         0.1623726569E+00      0.5142679628E+00
          0                 3           2             6    3     1       0.4299973083E-02       6    3    1         0.3461849387E-01      0.6478818681E-01
          0                 4           2             6    3     1       0.1540790740E-02       6    3    1         0.1241310367E-01      0.1777642584E-01
          0                 5           1             6    3     1       0.5518880306E-03       6    3    1         0.4447098599E-02      0.6180691754E-02
          0                 6           1             6    3     1       0.1976258361E-03       6    3    1         0.1592793196E-02      0.2198207425E-02
          0                 7           1             6    3     1       0.7075414890E-04       6    3    1         0.5703311989E-03      0.7847468383E-03

    ------------------------------------------------
       NWT REQUIRED            7 OUTER ITERATIONS 
       AND A TOTAL OF         11 INNER ITERATIONS.
    ------------------------------------------------

 OUTPUT CONTROL FOR STRESS PERIOD    6   TIME STEP   15
    PRINT BUDGET
    PRINT HEAD FOR ALL LAYERS
    SAVE HEAD FOR ALL LAYERS
    SAVE BUDGET

  HEAD DEP BOUNDS   PERIOD    6   STEP    15
 BOUNDARY      1   LAYER   1   ROW    13   COL     1   RATE   -0.283325    
 BOUNDARY      2   LAYER   1   ROW    14   COL     9   RATE    0.206794    



 STREAM LISTING     PERIOD      6   STEP       15

 LAYER ROW COL. STREAM  RCH.  FLOW INTO     FLOW TO   FLOW OUT OF   OVRLND.     DIRECT     STREAM       STREAM     STREAM     STREAM   STREAMBED  STREAMBED
                SEG.NO.  NO.  STRM. RCH.    AQUIFER    STRM. RCH.    RUNOFF     PRECIP       ET          HEAD       DEPTH      WIDTH   CONDCTNC.   GRADIENT

   1    1    1     1     1    2.5000E+01  1.1524E+00   2.3848E+01  0.000E+00  0.000E+00  0.000E+00  1.09422E+03  1.172E+00  1.295E+01  5.826E-01  6.593E-01
   1    2    2     1     2    2.3848E+01  2.6424E+00   2.1205E+01  0.000E+00  0.000E+00  0.000E+00  1.08920E+03  1.142E+00  1.256E+01  8.789E-01  1.002E+00
   1    3    3     1     3    2.1205E+01  2.9299E+00   1.8275E+01  0.000E+00  0.000E+00  0.000E+00  1.08351E+03  1.096E+00  1.192E+01  7.153E-01  1.365E+00
   1    3    4     1     4    1.8275E+01  2.4900E+00   1.5785E+01  0.000E+00  0.000E+00  0.000E+00  1.07846E+03  1.050E+00  1.108E+01  6.148E-01  1.350E+00
   1    4    5     2     1    5.7853E+00  2.6743E+00   3.1110E+00  0.000E+00  0.000E+00  0.000E+00  1.07236E+03  4.286E-01  1.200E+01  7.800E-01  1.143E+00
   1    5    6     2     2    3.1110E+00  1.9652E+00   1.1458E+00  0.000E+00  0.000E+00  0.000E+00  1.06678E+03  2.754E-01  1.200E+01  6.000E-01  1.092E+00
   1    6    6     2     3    1.1458E+00  1.1458E+00   0.0000E+00  0.000E+00  0.000E+00  0.000E+00  1.06184E+03  4.274E-02  1.200E+01  6.000E-01  1.014E+00
   1    7    6     2     4    0.0000E+00  0.0000E+00   0.0000E+00  0.000E+00  0.000E+00  0.000E+00  1.05708E+03  0.000E+00  1.200E+01  6.000E-01  1.000E+00
   1    8    6     2     5    0.0000E+00  0.0000E+00   0.0000E+00  0.000E+00  0.000E+00  0.000E+00  1.05236E+03  0.000E+00  1.200E+01  6.000E-01  1.000E+00
   1    3    5     3     1    1.0000E+01  8.5630E-01   9.1437E+00  0.000E+00  0.000E+00  0.000E+00  1.07555E+03  1.909E+00  9.636E+00  7.227E-01  5.924E-01
   1    3    6     3     2    9.1437E+00  7.0960E-01   8.4341E+00  0.000E+00  0.000E+00  0.000E+00  1.07264E+03  1.727E+00  8.909E+00  6.682E-01  5.310E-01
   1    3    7     3     3    8.4341E+00  6.4708E-01   7.7870E+00  0.000E+00  0.000E+00  0.000E+00  1.06987E+03  1.555E+00  8.218E+00  5.547E-01  5.832E-01
   1    4    8     3     4    7.7870E+00  1.5313E+00   6.2557E+00  0.000E+00  0.000E+00  0.000E+00  1.06682E+03  1.364E+00  7.455E+00  6.709E-01  1.141E+00
   1    5    8     3     5    6.2557E+00  1.5059E+00   4.7498E+00  0.000E+00  0.000E+00  0.000E+00  1.06362E+03  1.164E+00  6.655E+00  4.991E-01  1.509E+00
   1    6    8     3     6    4.7498E+00  5.5980E-01   4.1900E+00  0.000E+00  0.000E+00  0.000E+00  1.06158E+03  1.036E+00  6.145E+00  1.844E-01  1.518E+00
   1    5   10     4     1    1.0000E+01  9.0525E-01   9.0947E+00  0.000E+00  0.000E+00  0.000E+00  1.07835E+03  6.210E-01  1.000E+01  2.500E-01  1.207E+00
   1    5    9     4     2    9.0947E+00  1.7835E+00   7.3113E+00  0.000E+00  0.000E+00  0.000E+00  1.07148E+03  5.670E-01  1.000E+01  5.000E-01  1.189E+00
   1    6    8     4     3    7.3113E+00  1.2257E+00   6.0855E+00  0.000E+00  0.000E+00  0.000E+00  1.06368E+03  5.021E-01  1.000E+01  3.500E-01  1.167E+00
   1    6    8     5     1    1.0276E+01  3.4570E-01   9.9298E+00  0.000E+00  0.000E+00  0.000E+00  1.05867E+03  6.740E-01  1.522E+01  6.088E-01  1.893E-01
   1    7    7     5     2    9.9298E+00  1.4172E+00   8.5126E+00  0.000E+00  0.000E+00  0.000E+00  1.05415E+03  6.528E-01  1.441E+01  7.205E-01  6.557E-01
   1    8    7     5     3    8.5126E+00  1.0985E+00   7.4141E+00  0.000E+00  0.000E+00  0.000E+00  1.04987E+03  6.202E-01  1.320E+01  4.619E-01  7.928E-01
   1    8    6     5     4    7.4141E+00  1.0838E+00   6.3303E+00  0.000E+00  0.000E+00  0.000E+00  1.04684E+03  5.890E-01  1.208E+01  3.020E-01  1.196E+00
   1    9    6     6     1    6.3303E+00  1.9687E+00   4.3615E+00  0.000E+00  0.000E+00  0.000E+00  1.04321E+03  4.839E-01  1.200E+01  6.000E-01  1.094E+00
   1   10    7     6     2    4.3615E+00  1.2240E+00   3.1375E+00  0.000E+00  0.000E+00  0.000E+00  1.03857E+03  3.912E-01  1.200E+01  6.000E-01  6.800E-01
   1   11    7     6     3    3.1375E+00  9.5874E-01   2.1788E+00  0.000E+00  0.000E+00  0.000E+00  1.03395E+03  3.182E-01  1.200E+01  6.000E-01  5.326E-01
   1   12    7     6     4    2.1788E+00  5.7908E-01   1.5997E+00  0.000E+00  0.000E+00  0.000E+00  1.02935E+03  2.593E-01  1.200E+01  6.000E-01  3.217E-01
   1   13    7     6     5    1.5997E+00 -7.7593E-01   2.3757E+00  0.000E+00  0.000E+00  0.000E+00  1.02618E+03  2.673E-01  1.200E+01  2.400E-01 -1.078E+00
   1   14    9     7     1    1.5000E+02  1.7297E+00   1.4827E+02  0.000E+00  0.000E+00  0.000E+00  1.03987E+03  2.287E+00  5.529E+01  5.593E+00  1.031E-01
   1   13    8     7     2    1.4827E+02  1.7246E+00   1.4655E+02  0.000E+00  0.000E+00  0.000E+00  1.03478E+03  2.277E+00  5.525E+01  6.147E+00  9.352E-02
   1   13    7     7     3    1.4655E+02  1.5559E+00   1.4499E+02  0.000E+00  0.000E+00  0.000E+00  1.02969E+03  2.269E+00  5.521E+01  5.584E+00  9.288E-02
   1   13    6     8     1    1.4737E+02  3.7196E-01   1.4699E+02  0.000E+00  0.000E+00  0.000E+00  1.02467E+03  2.797E+00  4.055E+01  4.133E+00  3.000E-02
   1   13    5     8     2    1.4699E+02 -4.9500E-01   1.4749E+02  0.000E+00  0.000E+00  0.000E+00  1.01842E+03  2.797E+00  4.056E+01  4.133E+00 -3.992E-02
   1   13    4     8     3    1.4749E+02 -1.3103E+00   1.4880E+02  0.000E+00  0.000E+00  0.000E+00  1.01218E+03  2.804E+00  4.065E+01  4.143E+00 -1.054E-01
   1   13    3     8     4    1.4880E+02 -1.9721E+00   1.5077E+02  0.000E+00  0.000E+00  0.000E+00  1.00594E+03  2.815E+00  4.082E+01  4.160E+00 -1.580E-01
   1   13    2     8     5    1.5077E+02 -1.8900E+00   1.5266E+02  0.000E+00  0.000E+00  0.000E+00  9.99704E+02  2.829E+00  4.102E+01  4.180E+00 -1.507E-01
   1   13    1     8     6    1.5266E+02 -1.8619E+00   1.5452E+02  0.000E+00  0.000E+00  0.000E+00  9.94717E+02  2.842E+00  4.121E+01  2.520E+00 -2.463E-01



 UBDSV3 SAVING "           GW ET" ON UNIT  61 AT TIME STEP 15, STRESS PERIOD 6
 UBDSV3 SAVING "    UZF RECHARGE" ON UNIT  61 AT TIME STEP 15, STRESS PERIOD 6
 UBDSV3 SAVING " SURFACE LEAKAGE" ON UNIT  61 AT TIME STEP 15, STRESS PERIOD 6
 UBDSV3 SAVING "       HORT+DUNN" ON UNIT  61 AT TIME STEP 15, STRESS PERIOD 6
 UBDSV3 SAVING "  STORAGE CHANGE" ON UNIT  61 AT TIME STEP 15, STRESS PERIOD 6


UNSATURATED ZONE PACKAGE VOLUMETRIC BUDGET FOR  TIME STEP    15 STRESS PERIOD    6
  ------------------------------------------------------------------------------



     CUMULATIVE VOLUMES      L**3       RATES FOR THIS TIME STEP      L**3/T
     ------------------                 ------------------------

           IN:                                      IN:
           ---                                      ---
        INFILTRATION =  1202704104.7451          INFILTRATION =          84.7500

          OUT:                                     OUT:
          ----                                     ----
              UZF ET =  1234577294.8779                UZF ET =          67.4588
        UZF RECHARGE =   216308423.0968          UZF RECHARGE =          16.7856

            IN - OUT =  -248181613.2296              IN - OUT =           0.5055

          STORAGE:                                 STORAGE:
          --------                                 --------
      STORAGE CHANGE =  -247975722.4491        STORAGE CHANGE =           0.5092

 PERCENT DISCREPANCY IS DIFFERENCE BETWEEN IN-OUT MINUS CHANGE IN STORAGE
 DIVIDED BY THE AVERAGE OF IN AND OUT TIMES 100

 PERCENT DISCREPANCY =          -0.00     PERCENT DISCREPANCY =          -0.00






1
              HEAD IN LAYER 1 AT END OF TIME STEP 15 IN STRESS PERIOD 6
  ---------------------------------------------------------------------------

           1       2       3       4       5       6       7       8       9      10
 ...................................................................................
   1  1092.24 1087.73 6999.00 6999.00 6999.00 6999.00 6999.00 6999.00 6999.00 6999.00
   2  1087.71 1086.19 1078.28 6999.00 6999.00 1069.74 1069.45 1068.77 6999.00 6999.00
   3  6999.00 1074.90 1078.79 1074.19 1074.36 1071.57 1068.71 1066.10 6999.00 6999.00
   4  1065.91 1065.91 1064.84 1063.54 1066.27 1061.39 1059.80 1064.54 1062.17 6999.00
   5  1062.55 1059.32 1055.62 1053.26 1055.55 1060.43 1057.14 1060.60 1064.43 1065.61
   6  1058.75 1054.08 1049.51 1038.69 1042.02 1053.09 1053.94 1058.11 1057.72 1063.21
   7  1055.88 1049.02 1044.04 1030.02 1033.92 1045.61 1052.19 1052.61 1053.36 6999.00
   8  6999.00 1043.06 1039.32 1026.14 1029.75 1043.18 1047.49 1047.41 1049.81 6999.00
   9  6999.00 1037.13 1034.50 1022.34 1026.43 1039.93 1040.09 1041.51 1045.50 6999.00
  10  6999.00 1031.28 1029.97 1020.39 1023.06 1032.18 1036.53 1037.22 1041.79 1046.49
  11  6999.00 1023.77 1024.25 1023.85 1025.52 1028.89 1032.36 1033.78 1037.85 6999.00
  12  1006.73 1013.40 1015.93 1019.51 1022.33 1025.40 1028.39 1030.47 1035.24 6999.00
  13   995.46 1000.16 1006.41 1012.49 1018.54 1024.58 1029.41 1034.50 1035.87 6999.00
  14  6999.00 1012.41 1017.21 1021.77 1025.63 1028.71 1031.27 1034.66 1039.56 6999.00
  15  6999.00 6999.00 1026.37 1028.57 1031.25 1032.95 6999.00 6999.00 6999.00 6999.00
1
              HEAD IN LAYER 2 AT END OF TIME STEP 15 IN STRESS PERIOD 6
  ---------------------------------------------------------------------------

           1       2       3       4       5       6       7       8       9      10
 ...................................................................................
   1  1091.06 1087.16 6999.00 6999.00 6999.00 6999.00 6999.00 6999.00 6999.00 6999.00
   2  1087.47 1080.78 1075.41 6999.00 6999.00 1069.17 1068.96 1068.43 6999.00 6999.00
   3  6999.00 1072.72 1068.13 1064.39 1063.93 1064.64 1065.21 1065.58 6999.00 6999.00
   4  1065.22 1065.16 1062.28 1058.89 1057.50 1057.04 1058.39 1061.69 1061.78 6999.00
   5  1061.83 1058.59 1055.47 1053.44 1053.19 1053.55 1053.94 1055.86 1059.89 1063.83
   6  1058.08 1053.50 1049.84 1048.23 1048.51 1049.82 1051.19 1053.14 1056.84 1062.88
   7  1055.18 1048.52 1044.72 1043.35 1044.05 1045.74 1047.77 1050.31 1053.24 6999.00
   8  6999.00 1042.71 1039.92 1038.93 1039.79 1041.56 1043.50 1047.12 1049.51 6999.00
   9  6999.00 1036.70 1035.02 1034.60 1035.63 1037.42 1038.95 1041.38 1045.17 6999.00
  10  6999.00 1030.86 1030.38 1030.82 1032.05 1033.77 1035.11 1037.10 1041.37 1046.49
  11  6999.00 1023.90 1024.99 1027.43 1029.09 1030.87 1032.37 1033.99 1037.55 6999.00
  12  1007.01 1014.71 1019.76 1023.59 1026.27 1028.55 1030.26 1031.72 1035.18 6999.00
  13  1000.29 1007.74 1015.72 1020.99 1024.52 1027.43 1029.96 1032.63 1035.43 6999.00
  14  6999.00 1012.68 1017.54 1022.02 1025.66 1028.61 1031.03 1034.26 1036.91 6999.00
  15  6999.00 6999.00 1026.37 1028.57 1030.78 1032.49 6999.00 6999.00 6999.00 6999.00

 HEAD WILL BE SAVED ON UNIT   58 AT END OF TIME STEP   15, STRESS PERIOD    6
1
  VOLUMETRIC BUDGET FOR ENTIRE MODEL AT END OF TIME STEP   15, STRESS PERIOD   6
  ------------------------------------------------------------------------------

     CUMULATIVE VOLUMES      L**3       RATES FOR THIS TIME STEP      L**3/T
     ------------------                 ------------------------

           IN:                                      IN:
           ---                                      ---
             STORAGE     =    53784476.0000               STORAGE     =           0.4551
       CONSTANT HEAD     =           0.0000         CONSTANT HEAD     =           0.0000
               WELLS     =           0.0000                 WELLS     =           0.0000
     HEAD DEP BOUNDS     =     3259310.2500       HEAD DEP BOUNDS     =           0.2068
      STREAM LEAKAGE     =   625407232.0000        STREAM LEAKAGE     =          38.7824
        UZF RECHARGE     =   216308448.0000          UZF RECHARGE     =          16.7856
               GW ET     =           0.0000                 GW ET     =           0.0000
     SURFACE LEAKAGE     =           0.0000       SURFACE LEAKAGE     =           0.0000

                TOTAL IN =   898759424.0000                  TOTAL IN =          56.2300

          OUT:                                     OUT:
          ----                                     ----
             STORAGE     =   233929184.0000               STORAGE     =          27.2972
       CONSTANT HEAD     =           0.0000         CONSTANT HEAD     =           0.0000
               WELLS     =   236519984.0000                 WELLS     =           0.0000
     HEAD DEP BOUNDS     =     4462836.5000       HEAD DEP BOUNDS     =           0.2833
      STREAM LEAKAGE     =   128778168.0000        STREAM LEAKAGE     =           8.3053
        UZF RECHARGE     =           0.0000          UZF RECHARGE     =           0.0000
               GW ET     =   295065024.0000                 GW ET     =          20.3437
     SURFACE LEAKAGE     =           0.0000       SURFACE LEAKAGE     =           0.0000

               TOTAL OUT =   898755200.0000                 TOTAL OUT =          56.2295

                IN - OUT =        4224.0000                  IN - OUT =       4.6921E-04

     PERCENT DISCREPANCY =           0.00         PERCENT DISCREPANCY =           0.00






         TIME SUMMARY AT END OF TIME STEP   15 IN STRESS PERIOD    6
                    SECONDS     MINUTES      HOURS       DAYS        YEARS
                    -----------------------------------------------------------
   TIME STEP LENGTH 3.14103E+05  5235.0      87.251      3.6354     9.95332E-03
 STRESS PERIOD TIME 2.62800E+06  43800.      730.00      30.417     8.32763E-02
         TOTAL TIME 1.57680E+07 2.62800E+05  4380.0      182.50     0.49966    
1
1
                            STRESS PERIOD NO.    7, LENGTH =   2628000.    
                            -----------------------------------------------

                              NUMBER OF TIME STEPS =    15

                               MULTIPLIER FOR DELT =     1.100

                            INITIAL TIME STEP SIZE =   82713.07    

 WELL NO.  LAYER   ROW   COL   STRESS RATE         
 --------------------------------------------------
      1      1      6      4      -2.000    
      2      1      6      5      -2.000    
      3      1      7      4      -2.000    
      4      1      7      5      -2.000    
      5      1      8      4      -2.000    
      6      1      8      5      -2.000    
      7      1      9      4      -2.000    
      8      1      9      5      -2.000    
      9      1     10      4      -2.000    
     10      1     10      5      -2.000    

     10 WELLS

 REUSING NON-PARAMETER GHB CELLS FROM LAST STRESS PERIOD

      2 GHB CELLS

 REUSING STREAM SEGMENT DATA FROM LAST STRESS PERIOD



            AREAL INFILTRATION RATE
 READING ON UNIT   19 WITH FORMAT: (10F4.0)            

            1           2           3           4           5           6           7           8           9          10
 ........................................................................................................................
   1   3.0000E-09  6.0000E-09   0.000       0.000       0.000       0.000       0.000       0.000       0.000       0.000    
   2   6.0000E-09  3.0000E-09  6.0000E-09   0.000       0.000      2.4000E-08  2.4000E-08  1.5000E-08   0.000       0.000    
   3    0.000      1.5000E-08  3.0000E-09  3.0000E-09  2.4000E-08  2.4000E-08  1.5000E-08  1.5000E-08   0.000       0.000    
   4   2.4000E-08  1.5000E-08  3.0000E-09  3.0000E-09  3.0000E-09  3.0000E-09  3.0000E-09  3.0000E-09  6.0000E-09   0.000    
   5   2.4000E-08  1.5000E-08  3.0000E-09  3.0000E-09  3.0000E-09  3.0000E-09  3.0000E-09  3.0000E-09  3.0000E-09  3.0000E-09
   6   2.4000E-08  1.5000E-08  1.5000E-08  6.0000E-09  6.0000E-09  3.0000E-09  3.0000E-09  3.0000E-09  3.0000E-09  1.5000E-08
   7   2.4000E-08  1.5000E-08  1.5000E-08  6.0000E-09  6.0000E-09  3.0000E-09  3.0000E-09  6.0000E-09  6.0000E-09   0.000    
   8    0.000      1.5000E-08  1.5000E-08  6.0000E-09  6.0000E-09  3.0000E-09  3.0000E-09  6.0000E-09  1.5000E-08   0.000    
   9    0.000      1.5000E-08  1.5000E-08  6.0000E-09  6.0000E-09  3.0000E-09  3.0000E-09  6.0000E-09  1.5000E-08   0.000    
  10    0.000      1.5000E-08  1.5000E-08  6.0000E-09  6.0000E-09  3.0000E-09  3.0000E-09  6.0000E-09  1.5000E-08  2.4000E-08
  11    0.000      3.0000E-09  3.0000E-09  3.0000E-09  3.0000E-09  3.0000E-09  3.0000E-09  6.0000E-09  1.5000E-08   0.000    
  12   3.0000E-09  3.0000E-09  3.0000E-09  3.0000E-09  3.0000E-09  3.0000E-09  3.0000E-09  3.0000E-09  6.0000E-09   0.000    
  13   3.0000E-09  3.0000E-09  6.0000E-09  6.0000E-09  6.0000E-09  6.0000E-09  6.0000E-09  3.0000E-09  3.0000E-09   0.000    
  14    0.000      6.0000E-09  1.5000E-08  1.5000E-08  1.5000E-08  1.5000E-08  1.5000E-08  6.0000E-09  3.0000E-09   0.000    
  15    0.000       0.000      2.4000E-08  2.4000E-08  2.4000E-08  2.4000E-08   0.000       0.000       0.000       0.000    

USING ET RATE FROM PREVIOUS STRESS PERIOD. CURRENT PERIOD IS:       7

 USING ET EXTINCTION DEPTH FROM PREVIOUS STRESS PERIOD. CURRENT PERIOD IS:       7

 USING EXTINCTION WATER CONTENT FROM PREVIOUS STRESS PERIOD. CURRENT PERIOD IS:       7
 
 SOLVING FOR HEAD 
                                                   Max.-Head-Change                         Max.-Flux-Residual
  Residual-Control   Outer-Iter.   Inner-Iter.     Column Row Layer    Maximum-Head-Change  Column Row Layer    Maximum-Flux-Residual          L2-NORM 
          0                 1           2             6    3     1       0.7954727583E-02       5   10    1        -0.2694305762E+00      0.9490442434E+00
          0                 2           2             6    3     1       0.3137839036E-02       6    3    1         0.8887017968E-01      0.1485425153E+00
          0                 3           2             6    3     1       0.1237430259E-02       6    3    1         0.3503230968E-01      0.4973152437E-01
          0                 4           1             6    3     1       0.4879292589E-03       6    3    1         0.1381668745E-01      0.1918764712E-01
          0                 5           1             6    3     1       0.1923794914E-03       6    3    1         0.5447722713E-02      0.7514063244E-02
          0                 6           1             6    3     1       0.7584670562E-04       6    3    1         0.2147902716E-02      0.2958149660E-02

    ------------------------------------------------
       NWT REQUIRED            6 OUTER ITERATIONS 
       AND A TOTAL OF          9 INNER ITERATIONS.
    ------------------------------------------------

 NO OUTPUT CONTROL FOR STRESS PERIOD    7   TIME STEP    1
 
 SOLVING FOR HEAD 
                                                   Max.-Head-Change                         Max.-Flux-Residual
  Residual-Control   Outer-Iter.   Inner-Iter.     Column Row Layer    Maximum-Head-Change  Column Row Layer    Maximum-Flux-Residual          L2-NORM 
          0                 1           2             6    3     1       0.8356165431E-02       5   10    1        -0.2708478018E+00      0.9419525276E+00
          0                 2           2             6    3     1       0.3285627982E-02       6    3    1         0.8483089917E-01      0.1430461522E+00
          0                 3           2             6    3     1       0.1291513577E-02       6    3    1         0.3333555685E-01      0.4755129073E-01
          0                 4           1             6    3     1       0.5075972163E-03       6    3    1         0.1310450816E-01      0.1826400988E-01
          0                 5           1             6    3     1       0.1994810786E-03       6    3    1         0.5150120998E-02      0.7129952594E-02
          0                 6           1             6    3     1       0.7838949331E-04       6    3    1         0.2023933825E-02      0.2798466392E-02

    ------------------------------------------------
       NWT REQUIRED            6 OUTER ITERATIONS 
       AND A TOTAL OF          9 INNER ITERATIONS.
    ------------------------------------------------

 NO OUTPUT CONTROL FOR STRESS PERIOD    7   TIME STEP    2
 
 SOLVING FOR HEAD 
                                                   Max.-Head-Change                         Max.-Flux-Residual
  Residual-Control   Outer-Iter.   Inner-Iter.     Column Row Layer    Maximum-Head-Change  Column Row Layer    Maximum-Flux-Residual          L2-NORM 
          0                 1           2             6    3     1       0.8659161925E-02       5   10    1        -0.2716669145E+00      0.9602644202E+00
          0                 2           2             6    3     1       0.3393097564E-02       6    3    1         0.7988203862E-01      0.1446446739E+00
          0                 3           2             6    3     1       0.1329106529E-02       6    3    1         0.3128410393E-01      0.4614717087E-01
          0                 4           1             6    3     1       0.5205350094E-03       6    3    1         0.1225490612E-01      0.1738143936E-01
          0                 5           1             6    3     1       0.2038420585E-03       6    3    1         0.4799275218E-02      0.6723374462E-02
          0                 6           1             6    3     1       0.7981878989E-04       6    3    1         0.1879377242E-02      0.2623513070E-02

    ------------------------------------------------
       NWT REQUIRED            6 OUTER ITERATIONS 
       AND A TOTAL OF          9 INNER ITERATIONS.
    ------------------------------------------------

 NO OUTPUT CONTROL FOR STRESS PERIOD    7   TIME STEP    3
 
 SOLVING FOR HEAD 
                                                   Max.-Head-Change                         Max.-Flux-Residual
  Residual-Control   Outer-Iter.   Inner-Iter.     Column Row Layer    Maximum-Head-Change  Column Row Layer    Maximum-Flux-Residual          L2-NORM 
          0                 1           2             6    3     1       0.8982352104E-02       5   10    1        -0.2718060343E+00      0.9445944824E+00
          0                 2           2             6    3     1       0.3503215080E-02       6    3    1         0.7523193569E-01      0.1365195019E+00
          0                 3           2             6    3     1       0.1365719012E-02       6    3    1         0.2932456295E-01      0.4307566852E-01
          0                 4           1             6    3     1       0.5323189969E-03       6    3    1         0.1143254689E-01      0.1615742169E-01
          0                 5           1             6    3     1       0.2074579231E-03       6    3    1         0.4455821593E-02      0.6221313284E-02
          0                 6           1             6    3     1       0.8084467660E-04       6    3    1         0.1736516929E-02      0.2416259896E-02

    ------------------------------------------------
       NWT REQUIRED            6 OUTER ITERATIONS 
       AND A TOTAL OF          9 INNER ITERATIONS.
    ------------------------------------------------

 NO OUTPUT CONTROL FOR STRESS PERIOD    7   TIME STEP    4
 
 SOLVING FOR HEAD 
                                                   Max.-Head-Change                         Max.-Flux-Residual
  Residual-Control   Outer-Iter.   Inner-Iter.     Column Row Layer    Maximum-Head-Change  Column Row Layer    Maximum-Flux-Residual          L2-NORM 
          0                 1           2             6    3     1       0.9184618101E-02       5   10    1        -0.2712394641E+00      0.9313226705E+00
          0                 2           2             6    3     1       0.3593107189E-02       6    3    1         0.7041079831E-01      0.1297581790E+00
          0                 3           2             6    3     1       0.1405466595E-02       6    3    1         0.2753844890E-01      0.4049486429E-01
          0                 4           1             6    3     1       0.5496340786E-03       6    3    1         0.1077216058E-01      0.1517079508E-01
          0                 5           1             6    3     1       0.2149135577E-03       6    3    1         0.4212382769E-02      0.5836096077E-02
          0                 6           1             6    3     1       0.8402491380E-04       6    3    1         0.1647058826E-02      0.2264254792E-02

    ------------------------------------------------
       NWT REQUIRED            6 OUTER ITERATIONS 
       AND A TOTAL OF          9 INNER ITERATIONS.
    ------------------------------------------------

 OUTPUT CONTROL FOR STRESS PERIOD    7   TIME STEP    5
    PRINT BUDGET
    SAVE BUDGET

            WELLS   PERIOD    7   STEP   5
 WELL      1   LAYER   1   ROW     6   COL     4   RATE    -2.00000    
 WELL      2   LAYER   1   ROW     6   COL     5   RATE    -2.00000    
 WELL      3   LAYER   1   ROW     7   COL     4   RATE    -2.00000    
 WELL      4   LAYER   1   ROW     7   COL     5   RATE    -2.00000    
 WELL      5   LAYER   1   ROW     8   COL     4   RATE    -2.00000    
 WELL      6   LAYER   1   ROW     8   COL     5   RATE    -2.00000    
 WELL      7   LAYER   1   ROW     9   COL     4   RATE    -2.00000    
 WELL      8   LAYER   1   ROW     9   COL     5   RATE    -2.00000    
 WELL      9   LAYER   1   ROW    10   COL     4   RATE    -2.00000    
 WELL     10   LAYER   1   ROW    10   COL     5   RATE    -2.00000    

  HEAD DEP BOUNDS   PERIOD    7   STEP     5
 BOUNDARY      1   LAYER   1   ROW    13   COL     1   RATE   -0.283677    
 BOUNDARY      2   LAYER   1   ROW    14   COL     9   RATE    0.206776    



 STREAM LISTING     PERIOD      7   STEP        5

 LAYER ROW COL. STREAM  RCH.  FLOW INTO     FLOW TO   FLOW OUT OF   OVRLND.     DIRECT     STREAM       STREAM     STREAM     STREAM   STREAMBED  STREAMBED
                SEG.NO.  NO.  STRM. RCH.    AQUIFER    STRM. RCH.    RUNOFF     PRECIP       ET          HEAD       DEPTH      WIDTH   CONDCTNC.   GRADIENT

   1    1    1     1     1    2.5000E+01  1.1550E+00   2.3845E+01  0.000E+00  0.000E+00  0.000E+00  1.09422E+03  1.172E+00  1.295E+01  5.826E-01  6.608E-01
   1    2    2     1     2    2.3845E+01  2.6452E+00   2.1200E+01  0.000E+00  0.000E+00  0.000E+00  1.08920E+03  1.142E+00  1.255E+01  8.788E-01  1.003E+00
   1    3    3     1     3    2.1200E+01  2.9295E+00   1.8270E+01  0.000E+00  0.000E+00  0.000E+00  1.08351E+03  1.096E+00  1.192E+01  7.152E-01  1.365E+00
   1    3    4     1     4    1.8270E+01  2.4896E+00   1.5781E+01  0.000E+00  0.000E+00  0.000E+00  1.07846E+03  1.050E+00  1.108E+01  6.147E-01  1.350E+00
   1    4    5     2     1    5.7808E+00  2.6741E+00   3.1067E+00  0.000E+00  0.000E+00  0.000E+00  1.07236E+03  4.283E-01  1.200E+01  7.800E-01  1.143E+00
   1    5    6     2     2    3.1067E+00  1.9650E+00   1.1417E+00  0.000E+00  0.000E+00  0.000E+00  1.06678E+03  2.751E-01  1.200E+01  6.000E-01  1.092E+00
   1    6    6     2     3    1.1417E+00  1.1417E+00   0.0000E+00  0.000E+00  0.000E+00  0.000E+00  1.06184E+03  4.264E-02  1.200E+01  6.000E-01  1.014E+00
   1    7    6     2     4    0.0000E+00  0.0000E+00   0.0000E+00  0.000E+00  0.000E+00  0.000E+00  1.05708E+03  0.000E+00  1.200E+01  6.000E-01  1.000E+00
   1    8    6     2     5    0.0000E+00  0.0000E+00   0.0000E+00  0.000E+00  0.000E+00  0.000E+00  1.05236E+03  0.000E+00  1.200E+01  6.000E-01  1.000E+00
   1    3    5     3     1    1.0000E+01  8.1200E-01   9.1880E+00  0.000E+00  0.000E+00  0.000E+00  1.07555E+03  1.909E+00  9.636E+00  7.227E-01  5.618E-01
   1    3    6     3     2    9.1880E+00  6.6236E-01   8.5256E+00  0.000E+00  0.000E+00  0.000E+00  1.07264E+03  1.727E+00  8.909E+00  6.682E-01  4.956E-01
   1    3    7     3     3    8.5256E+00  6.2215E-01   7.9035E+00  0.000E+00  0.000E+00  0.000E+00  1.06987E+03  1.555E+00  8.218E+00  5.547E-01  5.608E-01
   1    4    8     3     4    7.9035E+00  1.5275E+00   6.3759E+00  0.000E+00  0.000E+00  0.000E+00  1.06682E+03  1.364E+00  7.455E+00  6.709E-01  1.138E+00
   1    5    8     3     5    6.3759E+00  1.5053E+00   4.8706E+00  0.000E+00  0.000E+00  0.000E+00  1.06362E+03  1.164E+00  6.655E+00  4.991E-01  1.508E+00
   1    6    8     3     6    4.8706E+00  5.5980E-01   4.3108E+00  0.000E+00  0.000E+00  0.000E+00  1.06158E+03  1.036E+00  6.145E+00  1.844E-01  1.518E+00
   1    5   10     4     1    1.0000E+01  9.0525E-01   9.0947E+00  0.000E+00  0.000E+00  0.000E+00  1.07835E+03  6.210E-01  1.000E+01  2.500E-01  1.207E+00
   1    5    9     4     2    9.0947E+00  1.7835E+00   7.3113E+00  0.000E+00  0.000E+00  0.000E+00  1.07148E+03  5.670E-01  1.000E+01  5.000E-01  1.189E+00
   1    6    8     4     3    7.3113E+00  1.2257E+00   6.0855E+00  0.000E+00  0.000E+00  0.000E+00  1.06368E+03  5.021E-01  1.000E+01  3.500E-01  1.167E+00
   1    6    8     5     1    1.0396E+01  3.4878E-01   1.0048E+01  0.000E+00  0.000E+00  0.000E+00  1.05868E+03  6.768E-01  1.533E+01  6.131E-01  1.896E-01
   1    7    7     5     2    1.0048E+01  1.4283E+00   8.6193E+00  0.000E+00  0.000E+00  0.000E+00  1.05416E+03  6.556E-01  1.451E+01  7.257E-01  6.560E-01
   1    8    7     5     3    8.6193E+00  1.1040E+00   7.5153E+00  0.000E+00  0.000E+00  0.000E+00  1.04987E+03  6.230E-01  1.330E+01  4.655E-01  7.906E-01
   1    8    6     5     4    7.5153E+00  1.0938E+00   6.4215E+00  0.000E+00  0.000E+00  0.000E+00  1.04684E+03  5.919E-01  1.218E+01  3.045E-01  1.197E+00
   1    9    6     6     1    6.4215E+00  1.9669E+00   4.4546E+00  0.000E+00  0.000E+00  0.000E+00  1.04322E+03  4.889E-01  1.200E+01  6.000E-01  1.093E+00
   1   10    7     6     2    4.4546E+00  1.2258E+00   3.2288E+00  0.000E+00  0.000E+00  0.000E+00  1.03858E+03  3.969E-01  1.200E+01  6.000E-01  6.810E-01
   1   11    7     6     3    3.2288E+00  9.5248E-01   2.2763E+00  0.000E+00  0.000E+00  0.000E+00  1.03396E+03  3.249E-01  1.200E+01  6.000E-01  5.292E-01
   1   12    7     6     4    2.2763E+00  5.6938E-01   1.7070E+00  0.000E+00  0.000E+00  0.000E+00  1.02936E+03  2.676E-01  1.200E+01  6.000E-01  3.163E-01
   1   13    7     6     5    1.7070E+00 -7.7403E-01   2.4810E+00  0.000E+00  0.000E+00  0.000E+00  1.02618E+03  2.758E-01  1.200E+01  2.400E-01 -1.075E+00
   1   14    9     7     1    1.5000E+02  1.7272E+00   1.4827E+02  0.000E+00  0.000E+00  0.000E+00  1.03987E+03  2.287E+00  5.529E+01  5.593E+00  1.029E-01
   1   13    8     7     2    1.4827E+02  1.7209E+00   1.4655E+02  0.000E+00  0.000E+00  0.000E+00  1.03478E+03  2.278E+00  5.525E+01  6.147E+00  9.332E-02
   1   13    7     7     3    1.4655E+02  1.5529E+00   1.4500E+02  0.000E+00  0.000E+00  0.000E+00  1.02969E+03  2.269E+00  5.521E+01  5.584E+00  9.270E-02
   1   13    6     8     1    1.4748E+02  3.0538E-01   1.4717E+02  0.000E+00  0.000E+00  0.000E+00  1.02467E+03  2.798E+00  4.057E+01  4.134E+00  2.462E-02
   1   13    5     8     2    1.4717E+02 -5.1387E-01   1.4769E+02  0.000E+00  0.000E+00  0.000E+00  1.01842E+03  2.799E+00  4.058E+01  4.135E+00 -4.142E-02
   1   13    4     8     3    1.4769E+02 -1.3319E+00   1.4902E+02  0.000E+00  0.000E+00  0.000E+00  1.01218E+03  2.805E+00  4.068E+01  4.145E+00 -1.071E-01
   1   13    3     8     4    1.4902E+02 -1.9961E+00   1.5102E+02  0.000E+00  0.000E+00  0.000E+00  1.00594E+03  2.817E+00  4.085E+01  4.162E+00 -1.599E-01
   1   13    2     8     5    1.5102E+02 -1.8892E+00   1.5291E+02  0.000E+00  0.000E+00  0.000E+00  9.99706E+02  2.831E+00  4.104E+01  4.182E+00 -1.506E-01
   1   13    1     8     6    1.5291E+02 -1.8819E+00   1.5479E+02  0.000E+00  0.000E+00  0.000E+00  9.94719E+02  2.844E+00  4.123E+01  2.521E+00 -2.488E-01



 UBDSV3 SAVING "           GW ET" ON UNIT  61 AT TIME STEP 5, STRESS PERIOD 7
 UBDSV3 SAVING "    UZF RECHARGE" ON UNIT  61 AT TIME STEP 5, STRESS PERIOD 7
 UBDSV3 SAVING " SURFACE LEAKAGE" ON UNIT  61 AT TIME STEP 5, STRESS PERIOD 7
 UBDSV3 SAVING "       HORT+DUNN" ON UNIT  61 AT TIME STEP 5, STRESS PERIOD 7
 UBDSV3 SAVING "  STORAGE CHANGE" ON UNIT  61 AT TIME STEP 5, STRESS PERIOD 7


UNSATURATED ZONE PACKAGE VOLUMETRIC BUDGET FOR  TIME STEP     5 STRESS PERIOD    7
  ------------------------------------------------------------------------------



     CUMULATIVE VOLUMES      L**3       RATES FOR THIS TIME STEP      L**3/T
     ------------------                 ------------------------

           IN:                                      IN:
           ---                                      ---
        INFILTRATION =  1215543007.0791          INFILTRATION =          25.4250

          OUT:                                     OUT:
          ----                                     ----
              UZF ET =  1268904836.1719                UZF ET =          68.1990
        UZF RECHARGE =   222862480.1817          UZF RECHARGE =          13.0798

            IN - OUT =  -276224309.2745              IN - OUT =         -55.8538

          STORAGE:                                 STORAGE:
          --------                                 --------
      STORAGE CHANGE =  -276017653.8336        STORAGE CHANGE =         -55.8495

 PERCENT DISCREPANCY IS DIFFERENCE BETWEEN IN-OUT MINUS CHANGE IN STORAGE
 DIVIDED BY THE AVERAGE OF IN AND OUT TIMES 100

 PERCENT DISCREPANCY =          -0.00     PERCENT DISCREPANCY =          -0.01






1
  VOLUMETRIC BUDGET FOR ENTIRE MODEL AT END OF TIME STEP    5, STRESS PERIOD   7
  ------------------------------------------------------------------------------

     CUMULATIVE VOLUMES      L**3       RATES FOR THIS TIME STEP      L**3/T
     ------------------                 ------------------------

           IN:                                      IN:
           ---                                      ---
             STORAGE     =    55094852.0000               STORAGE     =           2.5483
       CONSTANT HEAD     =           0.0000         CONSTANT HEAD     =           0.0000
               WELLS     =           0.0000                 WELLS     =           0.0000
     HEAD DEP BOUNDS     =     3363730.0000       HEAD DEP BOUNDS     =           0.2068
      STREAM LEAKAGE     =   644941440.0000        STREAM LEAKAGE     =          38.5993
        UZF RECHARGE     =   222862512.0000          UZF RECHARGE     =          13.0798
               GW ET     =           0.0000                 GW ET     =           0.0000
     SURFACE LEAKAGE     =           0.0000       SURFACE LEAKAGE     =           0.0000

                TOTAL IN =   926262528.0000                  TOTAL IN =          54.4342

          OUT:                                     OUT:
          ----                                     ----
             STORAGE     =   236694672.0000               STORAGE     =           5.4155
       CONSTANT HEAD     =           0.0000         CONSTANT HEAD     =           0.0000
               WELLS     =   246619408.0000                 WELLS     =          20.0000
     HEAD DEP BOUNDS     =     4606018.5000       HEAD DEP BOUNDS     =           0.2837
      STREAM LEAKAGE     =   132998872.0000        STREAM LEAKAGE     =           8.3870
        UZF RECHARGE     =           0.0000          UZF RECHARGE     =           0.0000
               GW ET     =   305338432.0000                 GW ET     =          20.3465
     SURFACE LEAKAGE     =           0.0000       SURFACE LEAKAGE     =           0.0000

               TOTAL OUT =   926257408.0000                 TOTAL OUT =          54.4327

                IN - OUT =        5120.0000                  IN - OUT =       1.4420E-03

     PERCENT DISCREPANCY =           0.00         PERCENT DISCREPANCY =           0.00






         TIME SUMMARY AT END OF TIME STEP    5 IN STRESS PERIOD    7
                    SECONDS     MINUTES      HOURS       DAYS        YEARS
                    -----------------------------------------------------------
   TIME STEP LENGTH 1.21100E+05  2018.3      33.639      1.4016     3.83743E-03
 STRESS PERIOD TIME 5.04972E+05  8416.2      140.27      5.8446     1.60016E-02
         TOTAL TIME 1.62730E+07 2.71216E+05  4520.3      188.34     0.51566    
1
 
 SOLVING FOR HEAD 
                                                   Max.-Head-Change                         Max.-Flux-Residual
  Residual-Control   Outer-Iter.   Inner-Iter.     Column Row Layer    Maximum-Head-Change  Column Row Layer    Maximum-Flux-Residual          L2-NORM 
          0                 1           2             6    2     1       0.3575919540E-01       6    2    1         0.6129942977E+00      0.1118658367E+01
          0                 2           2             6    2     1       0.1342392239E-01       6    2    1         0.2301699605E+00      0.2592710562E+00
          0                 3           2             6    2     1       0.5039219121E-02       6    2    1         0.8640015646E-01      0.9240219102E-01
          0                 4           2             6    2     1       0.1891682410E-02       6    2    1         0.3243422201E-01      0.3447182268E-01
          0                 5           1             6    2     1       0.7101309609E-03       6    2    1         0.1217552087E-01      0.1294111859E-01
          0                 6           1             6    2     1       0.2665851930E-03       6    2    1         0.4570665784E-02      0.4867712652E-02
          0                 7           1             6    2     1       0.1000788251E-03       6    2    1         0.1715847032E-02      0.1833056941E-02
          0                 8           1             6    2     1       0.3757143782E-04       6    2    1         0.6441494380E-03      0.6912915334E-03

    ------------------------------------------------
       NWT REQUIRED            8 OUTER ITERATIONS 
       AND A TOTAL OF         12 INNER ITERATIONS.
    ------------------------------------------------

 NO OUTPUT CONTROL FOR STRESS PERIOD    7   TIME STEP    6
 
 SOLVING FOR HEAD 
                                                   Max.-Head-Change                         Max.-Flux-Residual
  Residual-Control   Outer-Iter.   Inner-Iter.     Column Row Layer    Maximum-Head-Change  Column Row Layer    Maximum-Flux-Residual          L2-NORM 
          0                 1           2             6    2     1       0.7629132351E-01       6    2    1         0.1187992780E+01      0.1726433319E+01
          0                 2           2             6    2     1       0.2836051745E-01       6    2    1         0.4419689612E+00      0.5532241393E+00
          0                 3           2             6    2     1       0.1054291074E-01       6    2    1         0.1642634057E+00      0.2029225774E+00
          0                 4           2             6    2     1       0.3919359659E-02       6    2    1         0.6106801890E-01      0.7522276640E-01
          0                 5           2             6    2     1       0.1457062129E-02       6    2    1         0.2270197439E-01      0.2794395679E-01
          0                 6           1             6    2     1       0.5416882744E-03       6    2    1         0.8439761624E-02      0.1039328635E-01
          0                 7           1             6    2     1       0.2013859866E-03       6    2    1         0.3137638190E-02      0.3868931975E-02
          0                 8           1             6    2     1       0.7487167198E-04       6    2    1         0.1166499614E-02      0.1441307942E-02

    ------------------------------------------------
       NWT REQUIRED            8 OUTER ITERATIONS 
       AND A TOTAL OF         13 INNER ITERATIONS.
    ------------------------------------------------

 NO OUTPUT CONTROL FOR STRESS PERIOD    7   TIME STEP    7
 
 SOLVING FOR HEAD 
                                                   Max.-Head-Change                         Max.-Flux-Residual
  Residual-Control   Outer-Iter.   Inner-Iter.     Column Row Layer    Maximum-Head-Change  Column Row Layer    Maximum-Flux-Residual          L2-NORM 
          0                 1           2             7    2     1       0.8139183344E-01       7    2    1         0.1152908199E+01      0.1969769519E+01
          0                 2           2             7    2     1       0.3022018096E-01       7    2    1         0.4285766581E+00      0.6379948660E+00
          0                 3           2             7    2     1       0.1122009911E-01       7    2    1         0.1590776746E+00      0.2302045220E+00
          0                 4           2             7    2     1       0.4165660478E-02       7    2    1         0.5906664991E-01      0.8409584626E-01
          0                 5           2             7    2     1       0.1546537189E-02       7    2    1         0.2192894241E-01      0.3085693448E-01
          0                 6           1             7    2     1       0.5741523734E-03       7    2    1         0.8141317612E-02      0.1135521051E-01
          0                 7           1             7    2     1       0.2131497917E-03       7    2    1         0.3022447864E-02      0.4186690739E-02
          0                 8           1             7    2     1       0.7912871451E-04       7    2    1         0.1122056899E-02      0.1545778966E-02

    ------------------------------------------------
       NWT REQUIRED            8 OUTER ITERATIONS 
       AND A TOTAL OF         13 INNER ITERATIONS.
    ------------------------------------------------

 NO OUTPUT CONTROL FOR STRESS PERIOD    7   TIME STEP    8
 
 SOLVING FOR HEAD 
                                                   Max.-Head-Change                         Max.-Flux-Residual
  Residual-Control   Outer-Iter.   Inner-Iter.     Column Row Layer    Maximum-Head-Change  Column Row Layer    Maximum-Flux-Residual          L2-NORM 
          0                 1           2             7    2     1       0.8543795740E-01       7    2    1         0.1100457123E+01      0.2019178294E+01
          0                 2           2             7    2     1       0.3144106375E-01       7    2    1         0.4056355457E+00      0.6331453001E+00
          0                 3           2             7    2     1       0.1157005659E-01       7    2    1         0.1492080740E+00      0.2210618164E+00
          0                 4           2             7    2     1       0.4257638923E-02       7    2    1         0.5491382720E-01      0.7898225448E-01
          0                 5           2             7    2     1       0.1566742449E-02       7    2    1         0.2020693547E-01      0.2852616285E-01
          0                 6           1             7    2     1       0.5765293948E-03       7    2    1         0.7435877011E-02      0.1036959918E-01
          0                 7           1             7    2     1       0.2121484498E-03       7    2    1         0.2736238708E-02      0.3783657600E-02
          0                 8           1             7    2     1       0.7806428293E-04       7    2    1         0.1006865594E-02      0.1383751196E-02

    ------------------------------------------------
       NWT REQUIRED            8 OUTER ITERATIONS 
       AND A TOTAL OF         13 INNER ITERATIONS.
    ------------------------------------------------

 NO OUTPUT CONTROL FOR STRESS PERIOD    7   TIME STEP    9
 
 SOLVING FOR HEAD 
                                                   Max.-Head-Change                         Max.-Flux-Residual
  Residual-Control   Outer-Iter.   Inner-Iter.     Column Row Layer    Maximum-Head-Change  Column Row Layer    Maximum-Flux-Residual          L2-NORM 
          0                 1           2             7    2     1       0.8925095313E-01       7    2    1         0.1045930463E+01      0.2044693656E+01
          0                 2           2             7    2     1       0.3251665110E-01       7    2    1         0.3816590577E+00      0.6087510729E+00
          0                 3           2             7    2     1       0.1178940708E-01       7    2    1         0.1383086064E+00      0.2055036888E+00
          0                 4           2             7    2     1       0.4252862853E-02       7    2    1         0.4989627860E-01      0.7186928322E-01
          0                 5           2             7    2     1       0.1534250651E-02       7    2    1         0.1799907267E-01      0.2555018579E-01
          0                 6           1             7    2     1       0.5535169080E-03       7    2    1         0.6493434655E-02      0.9157745923E-02
          0                 7           1             7    2     1       0.1997011515E-03       7    2    1         0.2342674665E-02      0.3295295686E-02
          0                 8           1             7    2     1       0.7205132382E-04       7    2    1         0.8452108581E-03      0.1188175069E-02

    ------------------------------------------------
       NWT REQUIRED            8 OUTER ITERATIONS 
       AND A TOTAL OF         13 INNER ITERATIONS.
    ------------------------------------------------

 OUTPUT CONTROL FOR STRESS PERIOD    7   TIME STEP   10
    PRINT BUDGET
    SAVE BUDGET

            WELLS   PERIOD    7   STEP  10
 WELL      1   LAYER   1   ROW     6   COL     4   RATE    -2.00000    
 WELL      2   LAYER   1   ROW     6   COL     5   RATE    -2.00000    
 WELL      3   LAYER   1   ROW     7   COL     4   RATE    -2.00000    
 WELL      4   LAYER   1   ROW     7   COL     5   RATE    -2.00000    
 WELL      5   LAYER   1   ROW     8   COL     4   RATE    -2.00000    
 WELL      6   LAYER   1   ROW     8   COL     5   RATE    -2.00000    
 WELL      7   LAYER   1   ROW     9   COL     4   RATE    -2.00000    
 WELL      8   LAYER   1   ROW     9   COL     5   RATE    -2.00000    
 WELL      9   LAYER   1   ROW    10   COL     4   RATE    -2.00000    
 WELL     10   LAYER   1   ROW    10   COL     5   RATE    -2.00000    

  HEAD DEP BOUNDS   PERIOD    7   STEP    10
 BOUNDARY      1   LAYER   1   ROW    13   COL     1   RATE   -0.284052    
 BOUNDARY      2   LAYER   1   ROW    14   COL     9   RATE    0.206753    



 STREAM LISTING     PERIOD      7   STEP       10

 LAYER ROW COL. STREAM  RCH.  FLOW INTO     FLOW TO   FLOW OUT OF   OVRLND.     DIRECT     STREAM       STREAM     STREAM     STREAM   STREAMBED  STREAMBED
                SEG.NO.  NO.  STRM. RCH.    AQUIFER    STRM. RCH.    RUNOFF     PRECIP       ET          HEAD       DEPTH      WIDTH   CONDCTNC.   GRADIENT

   1    1    1     1     1    2.5000E+01  1.1587E+00   2.3841E+01  0.000E+00  0.000E+00  0.000E+00  1.09422E+03  1.171E+00  1.295E+01  5.826E-01  6.629E-01
   1    2    2     1     2    2.3841E+01  2.6486E+00   2.1193E+01  0.000E+00  0.000E+00  0.000E+00  1.08920E+03  1.142E+00  1.255E+01  8.787E-01  1.005E+00
   1    3    3     1     3    2.1193E+01  2.9289E+00   1.8264E+01  0.000E+00  0.000E+00  0.000E+00  1.08351E+03  1.096E+00  1.192E+01  7.151E-01  1.365E+00
   1    3    4     1     4    1.8264E+01  2.4891E+00   1.5775E+01  0.000E+00  0.000E+00  0.000E+00  1.07846E+03  1.050E+00  1.107E+01  6.146E-01  1.350E+00
   1    4    5     2     1    5.7748E+00  2.6738E+00   3.1009E+00  0.000E+00  0.000E+00  0.000E+00  1.07236E+03  4.280E-01  1.200E+01  7.800E-01  1.143E+00
   1    5    6     2     2    3.1009E+00  1.9648E+00   1.1361E+00  0.000E+00  0.000E+00  0.000E+00  1.06678E+03  2.746E-01  1.200E+01  6.000E-01  1.092E+00
   1    6    6     2     3    1.1361E+00  1.1361E+00   0.0000E+00  0.000E+00  0.000E+00  0.000E+00  1.06183E+03  4.252E-02  1.200E+01  6.000E-01  1.014E+00
   1    7    6     2     4    0.0000E+00  0.0000E+00   0.0000E+00  0.000E+00  0.000E+00  0.000E+00  1.05708E+03  0.000E+00  1.200E+01  6.000E-01  1.000E+00
   1    8    6     2     5    0.0000E+00  0.0000E+00   0.0000E+00  0.000E+00  0.000E+00  0.000E+00  1.05236E+03  0.000E+00  1.200E+01  6.000E-01  1.000E+00
   1    3    5     3     1    1.0000E+01  1.0010E+00   8.9990E+00  0.000E+00  0.000E+00  0.000E+00  1.07555E+03  1.909E+00  9.636E+00  7.227E-01  6.925E-01
   1    3    6     3     2    8.9990E+00  7.5476E-01   8.2443E+00  0.000E+00  0.000E+00  0.000E+00  1.07264E+03  1.727E+00  8.909E+00  6.682E-01  5.648E-01
   1    3    7     3     3    8.2443E+00  6.1097E-01   7.6333E+00  0.000E+00  0.000E+00  0.000E+00  1.06987E+03  1.555E+00  8.218E+00  5.547E-01  5.507E-01
   1    4    8     3     4    7.6333E+00  1.5223E+00   6.1110E+00  0.000E+00  0.000E+00  0.000E+00  1.06682E+03  1.364E+00  7.455E+00  6.709E-01  1.135E+00
   1    5    8     3     5    6.1110E+00  1.5042E+00   4.6068E+00  0.000E+00  0.000E+00  0.000E+00  1.06362E+03  1.164E+00  6.655E+00  4.991E-01  1.507E+00
   1    6    8     3     6    4.6068E+00  5.5980E-01   4.0470E+00  0.000E+00  0.000E+00  0.000E+00  1.06158E+03  1.036E+00  6.145E+00  1.844E-01  1.518E+00
   1    5   10     4     1    1.0000E+01  9.0525E-01   9.0947E+00  0.000E+00  0.000E+00  0.000E+00  1.07835E+03  6.210E-01  1.000E+01  2.500E-01  1.207E+00
   1    5    9     4     2    9.0947E+00  1.7835E+00   7.3113E+00  0.000E+00  0.000E+00  0.000E+00  1.07148E+03  5.670E-01  1.000E+01  5.000E-01  1.189E+00
   1    6    8     4     3    7.3113E+00  1.2257E+00   6.0855E+00  0.000E+00  0.000E+00  0.000E+00  1.06368E+03  5.021E-01  1.000E+01  3.500E-01  1.167E+00
   1    6    8     5     1    1.0133E+01  3.3808E-01   9.7945E+00  0.000E+00  0.000E+00  0.000E+00  1.05867E+03  6.708E-01  1.509E+01  6.038E-01  1.866E-01
   1    7    7     5     2    9.7945E+00  1.4002E+00   8.3943E+00  0.000E+00  0.000E+00  0.000E+00  1.05415E+03  6.497E-01  1.429E+01  7.145E-01  6.532E-01
   1    8    7     5     3    8.3943E+00  1.0778E+00   7.3165E+00  0.000E+00  0.000E+00  0.000E+00  1.04987E+03  6.172E-01  1.309E+01  4.581E-01  7.843E-01
   1    8    6     5     4    7.3165E+00  1.0721E+00   6.2444E+00  0.000E+00  0.000E+00  0.000E+00  1.04684E+03  5.862E-01  1.198E+01  2.996E-01  1.193E+00
   1    9    6     6     1    6.2444E+00  1.9545E+00   4.2899E+00  0.000E+00  0.000E+00  0.000E+00  1.04321E+03  4.796E-01  1.200E+01  6.000E-01  1.086E+00
   1   10    7     6     2    4.2899E+00  1.2169E+00   3.0730E+00  0.000E+00  0.000E+00  0.000E+00  1.03857E+03  3.869E-01  1.200E+01  6.000E-01  6.760E-01
   1   11    7     6     3    3.0730E+00  9.3137E-01   2.1416E+00  0.000E+00  0.000E+00  0.000E+00  1.03395E+03  3.146E-01  1.200E+01  6.000E-01  5.174E-01
   1   12    7     6     4    2.1416E+00  5.4224E-01   1.5994E+00  0.000E+00  0.000E+00  0.000E+00  1.02935E+03  2.577E-01  1.200E+01  6.000E-01  3.012E-01
   1   13    7     6     5    1.5994E+00 -7.8266E-01   2.3820E+00  0.000E+00  0.000E+00  0.000E+00  1.02618E+03  2.675E-01  1.200E+01  2.400E-01 -1.087E+00
   1   14    9     7     1    1.5000E+02  1.7239E+00   1.4828E+02  0.000E+00  0.000E+00  0.000E+00  1.03987E+03  2.287E+00  5.529E+01  5.593E+00  1.027E-01
   1   13    8     7     2    1.4828E+02  1.7147E+00   1.4656E+02  0.000E+00  0.000E+00  0.000E+00  1.03478E+03  2.278E+00  5.525E+01  6.147E+00  9.298E-02
   1   13    7     7     3    1.4656E+02  1.4008E+00   1.4516E+02  0.000E+00  0.000E+00  0.000E+00  1.02969E+03  2.269E+00  5.521E+01  5.584E+00  8.362E-02
   1   13    6     8     1    1.4754E+02  2.1908E-01   1.4732E+02  0.000E+00  0.000E+00  0.000E+00  1.02467E+03  2.799E+00  4.058E+01  4.135E+00  1.766E-02
   1   13    5     8     2    1.4732E+02 -5.0037E-01   1.4782E+02  0.000E+00  0.000E+00  0.000E+00  1.01842E+03  2.800E+00  4.060E+01  4.137E+00 -4.032E-02
   1   13    4     8     3    1.4782E+02 -1.3274E+00   1.4915E+02  0.000E+00  0.000E+00  0.000E+00  1.01218E+03  2.806E+00  4.069E+01  4.146E+00 -1.067E-01
   1   13    3     8     4    1.4915E+02 -2.0039E+00   1.5116E+02  0.000E+00  0.000E+00  0.000E+00  1.00594E+03  2.818E+00  4.086E+01  4.164E+00 -1.604E-01
   1   13    2     8     5    1.5116E+02 -1.8956E+00   1.5305E+02  0.000E+00  0.000E+00  0.000E+00  9.99707E+02  2.832E+00  4.106E+01  4.184E+00 -1.510E-01
   1   13    1     8     6    1.5305E+02 -1.9048E+00   1.5496E+02  0.000E+00  0.000E+00  0.000E+00  9.94720E+02  2.845E+00  4.125E+01  2.522E+00 -2.517E-01



 UBDSV3 SAVING "           GW ET" ON UNIT  61 AT TIME STEP 10, STRESS PERIOD 7
 UBDSV3 SAVING "    UZF RECHARGE" ON UNIT  61 AT TIME STEP 10, STRESS PERIOD 7
 UBDSV3 SAVING " SURFACE LEAKAGE" ON UNIT  61 AT TIME STEP 10, STRESS PERIOD 7
 UBDSV3 SAVING "       HORT+DUNN" ON UNIT  61 AT TIME STEP 10, STRESS PERIOD 7
 UBDSV3 SAVING "  STORAGE CHANGE" ON UNIT  61 AT TIME STEP 10, STRESS PERIOD 7


UNSATURATED ZONE PACKAGE VOLUMETRIC BUDGET FOR  TIME STEP    10 STRESS PERIOD    7
  ------------------------------------------------------------------------------



     CUMULATIVE VOLUMES      L**3       RATES FOR THIS TIME STEP      L**3/T
     ------------------                 ------------------------

           IN:                                      IN:
           ---                                      ---
        INFILTRATION =  1236220188.6221          INFILTRATION =          25.4250

          OUT:                                     OUT:
          ----                                     ----
              UZF ET =  1324741885.7686                UZF ET =          68.9378
        UZF RECHARGE =   234407103.8121          UZF RECHARGE =          12.6768

            IN - OUT =  -322928800.9585              IN - OUT =         -56.1896

          STORAGE:                                 STORAGE:
          --------                                 --------
      STORAGE CHANGE =  -322718413.9058        STORAGE CHANGE =         -56.1848

 PERCENT DISCREPANCY IS DIFFERENCE BETWEEN IN-OUT MINUS CHANGE IN STORAGE
 DIVIDED BY THE AVERAGE OF IN AND OUT TIMES 100

 PERCENT DISCREPANCY =          -0.00     PERCENT DISCREPANCY =          -0.01






1
  VOLUMETRIC BUDGET FOR ENTIRE MODEL AT END OF TIME STEP   10, STRESS PERIOD   7
  ------------------------------------------------------------------------------

     CUMULATIVE VOLUMES      L**3       RATES FOR THIS TIME STEP      L**3/T
     ------------------                 ------------------------

           IN:                                      IN:
           ---                                      ---
             STORAGE     =    58308756.0000               STORAGE     =           5.1401
       CONSTANT HEAD     =           0.0000         CONSTANT HEAD     =           0.0000
               WELLS     =           0.0000                 WELLS     =           0.0000
     HEAD DEP BOUNDS     =     3531881.7500       HEAD DEP BOUNDS     =           0.2068
      STREAM LEAKAGE     =   676217280.0000        STREAM LEAKAGE     =          38.4591
        UZF RECHARGE     =   234407120.0000          UZF RECHARGE     =          12.6768
               GW ET     =           0.0000                 GW ET     =           0.0000
     SURFACE LEAKAGE     =           0.0000       SURFACE LEAKAGE     =           0.0000

                TOTAL IN =   972465024.0000                  TOTAL IN =          56.4828

          OUT:                                     OUT:
          ----                                     ----
             STORAGE     =   243023680.0000               STORAGE     =           7.5013
       CONSTANT HEAD     =           0.0000         CONSTANT HEAD     =           0.0000
               WELLS     =   262884640.0000                 WELLS     =          20.0000
     HEAD DEP BOUNDS     =     4836919.5000       HEAD DEP BOUNDS     =           0.2841
      STREAM LEAKAGE     =   139850304.0000        STREAM LEAKAGE     =           8.4147
        UZF RECHARGE     =           0.0000          UZF RECHARGE     =           0.0000
               GW ET     =   321863808.0000                 GW ET     =          20.2821
     SURFACE LEAKAGE     =           0.0000       SURFACE LEAKAGE     =           0.0000

               TOTAL OUT =   972459392.0000                 TOTAL OUT =          56.4821

                IN - OUT =        5632.0000                  IN - OUT =       6.1417E-04

     PERCENT DISCREPANCY =           0.00         PERCENT DISCREPANCY =           0.00






         TIME SUMMARY AT END OF TIME STEP   10 IN STRESS PERIOD    7
                    SECONDS     MINUTES      HOURS       DAYS        YEARS
                    -----------------------------------------------------------
   TIME STEP LENGTH 1.95033E+05  3250.6      54.176      2.2573     6.18023E-03
 STRESS PERIOD TIME 1.31823E+06  21971.      366.18      15.257     4.17723E-02
         TOTAL TIME 1.70862E+07 2.84770E+05  4746.2      197.76     0.54143    
1
 
 SOLVING FOR HEAD 
                                                   Max.-Head-Change                         Max.-Flux-Residual
  Residual-Control   Outer-Iter.   Inner-Iter.     Column Row Layer    Maximum-Head-Change  Column Row Layer    Maximum-Flux-Residual          L2-NORM 
          0                 1           2             7    2     1       0.9505866254E-01       7    2    1         0.1013649424E+01      0.2052100018E+01
          0                 2           2             7    2     1       0.3425398426E-01       7    2    1         0.3657500696E+00      0.5812704071E+00
          0                 3           2             7    2     1       0.1234581320E-01       7    2    1         0.1317500632E+00      0.1936874221E+00
          0                 4           2             7    2     1       0.4450290259E-02       7    2    1         0.4749294645E-01      0.6795205470E-01
          0                 5           2             7    2     1       0.1604340389E-02       7    2    1         0.1711969156E-01      0.2427106128E-01
          0                 6           1             7    2     1       0.5784033910E-03       7    2    1         0.6171857525E-02      0.8726981945E-02
          0                 7           1             7    2     1       0.2085367994E-03       7    2    1         0.2225124400E-02      0.3145510078E-02
          0                 8           1             6    2     1       0.7529063799E-04       7    2    1         0.8022504049E-03      0.1134892032E-02

    ------------------------------------------------
       NWT REQUIRED            8 OUTER ITERATIONS 
       AND A TOTAL OF         13 INNER ITERATIONS.
    ------------------------------------------------

 NO OUTPUT CONTROL FOR STRESS PERIOD    7   TIME STEP   11
 
 SOLVING FOR HEAD 
                                                   Max.-Head-Change                         Max.-Flux-Residual
  Residual-Control   Outer-Iter.   Inner-Iter.     Column Row Layer    Maximum-Head-Change  Column Row Layer    Maximum-Flux-Residual          L2-NORM 
          0                 1           2             5    3     1      -0.8583411879E-01       5    3    1        -0.9009519588E+00      0.1895114464E+01
          0                 2           2             7    2     1       0.2795416295E-01       7    2    1         0.2716494721E+00      0.4640735526E+00
          0                 3           2             7    2     1       0.9310979375E-02       7    2    1         0.9041136275E-01      0.1362856332E+00
          0                 4           2             7    2     1       0.3102018351E-02       7    2    1         0.3012139078E-01      0.4317289276E-01
          0                 5           1             7    2     1       0.1033620116E-02       7    2    1         0.1003515187E-01      0.1410557951E-01
          0                 6           1             7    2     1       0.3444476123E-03       7    2    1         0.3343960322E-02      0.4668165325E-02
          0                 7           1             7    2     1       0.1147932947E-03       7    2    1         0.1114373943E-02      0.1552883186E-02
          0                 8           1             7    2     1       0.3825881250E-04       7    2    1         0.3713910052E-03      0.5178870569E-03

    ------------------------------------------------
       NWT REQUIRED            8 OUTER ITERATIONS 
       AND A TOTAL OF         12 INNER ITERATIONS.
    ------------------------------------------------

 NO OUTPUT CONTROL FOR STRESS PERIOD    7   TIME STEP   12
 
 SOLVING FOR HEAD 
                                                   Max.-Head-Change                         Max.-Flux-Residual
  Residual-Control   Outer-Iter.   Inner-Iter.     Column Row Layer    Maximum-Head-Change  Column Row Layer    Maximum-Flux-Residual          L2-NORM 
          0                 1           2             5    3     1      -0.8530589809E-01       5    3    1        -0.8204440275E+00      0.1807619234E+01
          0                 2           2             7    2     1       0.2809733718E-01       7    2    1         0.2483778366E+00      0.4210444680E+00
          0                 3           2             7    2     1       0.9350509570E-02       7    2    1         0.8259715065E-01      0.1223213063E+00
          0                 4           2             7    2     1       0.3112521209E-02       7    2    1         0.2749372586E-01      0.3886931872E-01
          0                 5           1             7    2     1       0.1036197034E-02       7    2    1         0.9151959630E-02      0.1271703035E-01
          0                 6           1             7    2     1       0.3449808132E-03       7    2    1         0.3046907630E-02      0.4199662971E-02
          0                 7           1             7    2     1       0.1148558683E-03       7    2    1         0.1014411596E-02      0.1390971687E-02
          0                 8           1             7    2     1       0.3823910800E-04       7    2    1         0.3377329902E-03      0.4613694954E-03

    ------------------------------------------------
       NWT REQUIRED            8 OUTER ITERATIONS 
       AND A TOTAL OF         12 INNER ITERATIONS.
    ------------------------------------------------

 NO OUTPUT CONTROL FOR STRESS PERIOD    7   TIME STEP   13
 
 SOLVING FOR HEAD 
                                                   Max.-Head-Change                         Max.-Flux-Residual
  Residual-Control   Outer-Iter.   Inner-Iter.     Column Row Layer    Maximum-Head-Change  Column Row Layer    Maximum-Flux-Residual          L2-NORM 
          0                 1           2             6    3     1      -0.9157916271E-01       6    3    1        -0.8057431895E+00      0.1713997317E+01
          0                 2           2             7    2     1       0.2790136304E-01       7    2    1         0.2243978498E+00      0.3805645618E+00
          0                 3           2             7    2     1       0.9042576413E-02       7    2    1         0.7266455833E-01      0.1079135725E+00
          0                 4           2             7    2     1       0.2931562652E-02       7    2    1         0.2355616477E-01      0.3369258086E-01
          0                 5           1             7    2     1       0.9505501423E-03       7    2    1         0.7636955616E-02      0.1082034445E-01
          0                 6           1             6    2     1       0.3084326550E-03       7    2    1         0.2476366823E-02      0.3503258571E-02
          0                 7           1             6    2     1       0.1003101008E-03       6    2    1         0.8040769591E-03      0.1136997267E-02
          0                 8           1             6    2     1       0.3262478688E-04       6    2    1         0.2615112086E-03      0.3695246303E-03

    ------------------------------------------------
       NWT REQUIRED            8 OUTER ITERATIONS 
       AND A TOTAL OF         12 INNER ITERATIONS.
    ------------------------------------------------

 NO OUTPUT CONTROL FOR STRESS PERIOD    7   TIME STEP   14
 
 SOLVING FOR HEAD 
                                                   Max.-Head-Change                         Max.-Flux-Residual
  Residual-Control   Outer-Iter.   Inner-Iter.     Column Row Layer    Maximum-Head-Change  Column Row Layer    Maximum-Flux-Residual          L2-NORM 
          0                 1           2             6    3     1      -0.8990089351E-01       6    3    1        -0.7256700657E+00      0.1590408689E+01
          0                 2           2             7    2     1       0.2753129958E-01       7    2    1         0.2014810691E+00      0.3401691649E+00
          0                 3           2             7    2     1       0.8779419203E-02       7    2    1         0.6419060924E-01      0.9504188995E-01
          0                 4           2             6    2     1       0.2808421905E-02       6    2    1         0.2048722019E-01      0.2931293130E-01
          0                 5           1             6    2     1       0.8987780777E-03       6    2    1         0.6554605513E-02      0.9281510777E-02
          0                 6           1             6    2     1       0.2876899362E-03       6    2    1         0.2097858750E-02      0.2959622504E-02
          0                 7           1             6    2     1       0.9209448425E-04       6    2    1         0.6715242989E-03      0.9456320381E-03

    ------------------------------------------------
       NWT REQUIRED            7 OUTER ITERATIONS 
       AND A TOTAL OF         11 INNER ITERATIONS.
    ------------------------------------------------

 OUTPUT CONTROL FOR STRESS PERIOD    7   TIME STEP   15
    PRINT BUDGET
    PRINT HEAD FOR ALL LAYERS
    SAVE HEAD FOR ALL LAYERS
    SAVE BUDGET

            WELLS   PERIOD    7   STEP  15
 WELL      1   LAYER   1   ROW     6   COL     4   RATE    -2.00000    
 WELL      2   LAYER   1   ROW     6   COL     5   RATE    -2.00000    
 WELL      3   LAYER   1   ROW     7   COL     4   RATE    -2.00000    
 WELL      4   LAYER   1   ROW     7   COL     5   RATE    -2.00000    
 WELL      5   LAYER   1   ROW     8   COL     4   RATE    -2.00000    
 WELL      6   LAYER   1   ROW     8   COL     5   RATE    -2.00000    
 WELL      7   LAYER   1   ROW     9   COL     4   RATE    -2.00000    
 WELL      8   LAYER   1   ROW     9   COL     5   RATE    -2.00000    
 WELL      9   LAYER   1   ROW    10   COL     4   RATE    -2.00000    
 WELL     10   LAYER   1   ROW    10   COL     5   RATE    -2.00000    

  HEAD DEP BOUNDS   PERIOD    7   STEP    15
 BOUNDARY      1   LAYER   1   ROW    13   COL     1   RATE   -0.283996    
 BOUNDARY      2   LAYER   1   ROW    14   COL     9   RATE    0.206728    



 STREAM LISTING     PERIOD      7   STEP       15

 LAYER ROW COL. STREAM  RCH.  FLOW INTO     FLOW TO   FLOW OUT OF   OVRLND.     DIRECT     STREAM       STREAM     STREAM     STREAM   STREAMBED  STREAMBED
                SEG.NO.  NO.  STRM. RCH.    AQUIFER    STRM. RCH.    RUNOFF     PRECIP       ET          HEAD       DEPTH      WIDTH   CONDCTNC.   GRADIENT

   1    1    1     1     1    2.5000E+01  1.1637E+00   2.3836E+01  0.000E+00  0.000E+00  0.000E+00  1.09422E+03  1.171E+00  1.295E+01  5.826E-01  6.658E-01
   1    2    2     1     2    2.3836E+01  2.6525E+00   2.1184E+01  0.000E+00  0.000E+00  0.000E+00  1.08920E+03  1.142E+00  1.255E+01  8.786E-01  1.006E+00
   1    3    3     1     3    2.1184E+01  2.9281E+00   1.8256E+01  0.000E+00  0.000E+00  0.000E+00  1.08351E+03  1.096E+00  1.192E+01  7.150E-01  1.365E+00
   1    3    4     1     4    1.8256E+01  2.4884E+00   1.5767E+01  0.000E+00  0.000E+00  0.000E+00  1.07846E+03  1.050E+00  1.107E+01  6.145E-01  1.350E+00
   1    4    5     2     1    5.7673E+00  2.6735E+00   3.0937E+00  0.000E+00  0.000E+00  0.000E+00  1.07236E+03  4.276E-01  1.200E+01  7.800E-01  1.143E+00
   1    5    6     2     2    3.0937E+00  1.9645E+00   1.1293E+00  0.000E+00  0.000E+00  0.000E+00  1.06678E+03  2.741E-01  1.200E+01  6.000E-01  1.091E+00
   1    6    6     2     3    1.1293E+00  1.1293E+00   0.0000E+00  0.000E+00  0.000E+00  0.000E+00  1.06183E+03  4.237E-02  1.200E+01  6.000E-01  1.014E+00
   1    7    6     2     4    0.0000E+00  0.0000E+00   0.0000E+00  0.000E+00  0.000E+00  0.000E+00  1.05708E+03  0.000E+00  1.200E+01  6.000E-01  1.000E+00
   1    8    6     2     5    0.0000E+00  0.0000E+00   0.0000E+00  0.000E+00  0.000E+00  0.000E+00  1.05236E+03  0.000E+00  1.200E+01  6.000E-01  1.000E+00
   1    3    5     3     1    1.0000E+01  1.3638E+00   8.6362E+00  0.000E+00  0.000E+00  0.000E+00  1.07555E+03  1.909E+00  9.636E+00  7.227E-01  9.435E-01
   1    3    6     3     2    8.6362E+00  1.0936E+00   7.5426E+00  0.000E+00  0.000E+00  0.000E+00  1.07264E+03  1.727E+00  8.909E+00  6.682E-01  8.184E-01
   1    3    7     3     3    7.5426E+00  7.6072E-01   6.7818E+00  0.000E+00  0.000E+00  0.000E+00  1.06987E+03  1.555E+00  8.218E+00  5.547E-01  6.857E-01
   1    4    8     3     4    6.7818E+00  1.5200E+00   5.2619E+00  0.000E+00  0.000E+00  0.000E+00  1.06682E+03  1.364E+00  7.455E+00  6.709E-01  1.133E+00
   1    5    8     3     5    5.2619E+00  1.5021E+00   3.7597E+00  0.000E+00  0.000E+00  0.000E+00  1.06362E+03  1.164E+00  6.655E+00  4.991E-01  1.505E+00
   1    6    8     3     6    3.7597E+00  5.5980E-01   3.2000E+00  0.000E+00  0.000E+00  0.000E+00  1.06158E+03  1.036E+00  6.145E+00  1.844E-01  1.518E+00
   1    5   10     4     1    1.0000E+01  9.0525E-01   9.0947E+00  0.000E+00  0.000E+00  0.000E+00  1.07835E+03  6.210E-01  1.000E+01  2.500E-01  1.207E+00
   1    5    9     4     2    9.0947E+00  1.7835E+00   7.3113E+00  0.000E+00  0.000E+00  0.000E+00  1.07148E+03  5.670E-01  1.000E+01  5.000E-01  1.189E+00
   1    6    8     4     3    7.3113E+00  1.2257E+00   6.0855E+00  0.000E+00  0.000E+00  0.000E+00  1.06368E+03  5.021E-01  1.000E+01  3.500E-01  1.167E+00
   1    6    8     5     1    9.2855E+00  3.0939E-01   8.9761E+00  0.000E+00  0.000E+00  0.000E+00  1.05865E+03  6.506E-01  1.432E+01  5.730E-01  1.800E-01
   1    7    7     5     2    8.9761E+00  1.3211E+00   7.6550E+00  0.000E+00  0.000E+00  0.000E+00  1.05413E+03  6.296E-01  1.354E+01  6.772E-01  6.503E-01
   1    8    7     5     3    7.6550E+00  1.0075E+00   6.6476E+00  0.000E+00  0.000E+00  0.000E+00  1.04985E+03  5.973E-01  1.237E+01  4.330E-01  7.756E-01
   1    8    6     5     4    6.6476E+00  9.9204E-01   5.6555E+00  0.000E+00  0.000E+00  0.000E+00  1.04682E+03  5.666E-01  1.130E+01  2.826E-01  1.170E+00
   1    9    6     6     1    5.6555E+00  1.9281E+00   3.7274E+00  0.000E+00  0.000E+00  0.000E+00  1.04317E+03  4.475E-01  1.200E+01  6.000E-01  1.071E+00
   1   10    7     6     2    3.7274E+00  1.1928E+00   2.5346E+00  0.000E+00  0.000E+00  0.000E+00  1.03853E+03  3.511E-01  1.200E+01  6.000E-01  6.627E-01
   1   11    7     6     3    2.5346E+00  8.9025E-01   1.6443E+00  0.000E+00  0.000E+00  0.000E+00  1.03391E+03  2.754E-01  1.200E+01  6.000E-01  4.946E-01
   1   12    7     6     4    1.6443E+00  4.9181E-01   1.1525E+00  0.000E+00  0.000E+00  0.000E+00  1.02931E+03  2.165E-01  1.200E+01  6.000E-01  2.732E-01
   1   13    7     6     5    1.1525E+00 -7.9297E-01   1.9455E+00  0.000E+00  0.000E+00  0.000E+00  1.02614E+03  2.301E-01  1.200E+01  2.400E-01 -1.101E+00
   1   14    9     7     1    1.5000E+02  1.7202E+00   1.4828E+02  0.000E+00  0.000E+00  0.000E+00  1.03987E+03  2.287E+00  5.529E+01  5.593E+00  1.025E-01
   1   13    8     7     2    1.4828E+02  1.7076E+00   1.4657E+02  0.000E+00  0.000E+00  0.000E+00  1.03478E+03  2.278E+00  5.525E+01  6.147E+00  9.260E-02
   1   13    7     7     3    1.4657E+02  1.3704E+00   1.4520E+02  0.000E+00  0.000E+00  0.000E+00  1.02969E+03  2.269E+00  5.521E+01  5.584E+00  8.181E-02
   1   13    6     8     1    1.4715E+02  2.0670E-01   1.4694E+02  0.000E+00  0.000E+00  0.000E+00  1.02467E+03  2.796E+00  4.054E+01  4.131E+00  1.668E-02
   1   13    5     8     2    1.4694E+02 -3.4656E-01   1.4729E+02  0.000E+00  0.000E+00  0.000E+00  1.01842E+03  2.796E+00  4.055E+01  4.132E+00 -2.796E-02
   1   13    4     8     3    1.4729E+02 -1.1752E+00   1.4846E+02  0.000E+00  0.000E+00  0.000E+00  1.01218E+03  2.802E+00  4.063E+01  4.140E+00 -9.462E-02
   1   13    3     8     4    1.4846E+02 -1.8598E+00   1.5032E+02  0.000E+00  0.000E+00  0.000E+00  1.00594E+03  2.813E+00  4.078E+01  4.156E+00 -1.492E-01
   1   13    2     8     5    1.5032E+02 -1.9139E+00   1.5224E+02  0.000E+00  0.000E+00  0.000E+00  9.99701E+02  2.826E+00  4.097E+01  4.175E+00 -1.528E-01
   1   13    1     8     6    1.5224E+02 -1.9115E+00   1.5415E+02  0.000E+00  0.000E+00  0.000E+00  9.94714E+02  2.839E+00  4.117E+01  2.517E+00 -2.531E-01



 UBDSV3 SAVING "           GW ET" ON UNIT  61 AT TIME STEP 15, STRESS PERIOD 7
 UBDSV3 SAVING "    UZF RECHARGE" ON UNIT  61 AT TIME STEP 15, STRESS PERIOD 7
 UBDSV3 SAVING " SURFACE LEAKAGE" ON UNIT  61 AT TIME STEP 15, STRESS PERIOD 7
 UBDSV3 SAVING "       HORT+DUNN" ON UNIT  61 AT TIME STEP 15, STRESS PERIOD 7
 UBDSV3 SAVING "  STORAGE CHANGE" ON UNIT  61 AT TIME STEP 15, STRESS PERIOD 7


UNSATURATED ZONE PACKAGE VOLUMETRIC BUDGET FOR  TIME STEP    15 STRESS PERIOD    7
  ------------------------------------------------------------------------------



     CUMULATIVE VOLUMES      L**3       RATES FOR THIS TIME STEP      L**3/T
     ------------------                 ------------------------

           IN:                                      IN:
           ---                                      ---
        INFILTRATION =  1269520998.1777          INFILTRATION =          25.4250

          OUT:                                     OUT:
          ----                                     ----
              UZF ET =  1415227608.4521                UZF ET =          68.9751
        UZF RECHARGE =   247707812.0398          UZF RECHARGE =           9.1586

            IN - OUT =  -393414422.3142              IN - OUT =         -52.7087

          STORAGE:                                 STORAGE:
          --------                                 --------
      STORAGE CHANGE =  -393187400.2252        STORAGE CHANGE =         -52.6985

 PERCENT DISCREPANCY IS DIFFERENCE BETWEEN IN-OUT MINUS CHANGE IN STORAGE
 DIVIDED BY THE AVERAGE OF IN AND OUT TIMES 100

 PERCENT DISCREPANCY =          -0.00     PERCENT DISCREPANCY =          -0.01






1
              HEAD IN LAYER 1 AT END OF TIME STEP 15 IN STRESS PERIOD 7
  ---------------------------------------------------------------------------

           1       2       3       4       5       6       7       8       9      10
 ...................................................................................
   1  1092.22 1087.72 6999.00 6999.00 6999.00 6999.00 6999.00 6999.00 6999.00 6999.00
   2  1087.68 1086.18 1078.31 6999.00 6999.00 1070.97 1070.60 1068.81 6999.00 6999.00
   3  6999.00 1074.90 1078.81 1074.22 1073.66 1071.00 1068.50 1066.10 6999.00 6999.00
   4  1065.92 1065.93 1064.88 1063.59 1066.28 1061.44 1059.86 1064.55 1062.20 6999.00
   5  1062.56 1059.34 1055.66 1053.32 1055.62 1060.45 1057.17 1060.61 1064.42 1065.61
   6  1058.76 1054.11 1049.57 1038.57 1041.87 1053.15 1053.98 1058.11 1057.75 1063.22
   7  1055.89 1049.05 1044.11 1029.95 1033.82 1045.70 1052.18 1052.63 1053.39 6999.00
   8  6999.00 1043.08 1039.39 1026.06 1029.66 1043.31 1047.52 1047.44 1049.82 6999.00
   9  6999.00 1037.16 1034.56 1022.26 1026.31 1039.96 1040.12 1041.55 1045.51 6999.00
  10  6999.00 1031.30 1030.04 1020.27 1022.91 1032.23 1036.54 1037.26 1041.80 1046.50
  11  6999.00 1023.79 1024.29 1023.91 1025.58 1028.94 1032.43 1033.81 1037.87 6999.00
  12  1006.74 1013.41 1015.92 1019.51 1022.34 1025.44 1028.49 1030.51 1035.25 6999.00
  13   995.47 1000.16 1006.39 1012.46 1018.51 1024.62 1029.44 1034.50 1035.86 6999.00
  14  6999.00 1012.38 1017.17 1021.73 1025.60 1028.66 1031.21 1034.65 1039.56 6999.00
  15  6999.00 6999.00 1026.36 1028.57 1031.27 1032.97 6999.00 6999.00 6999.00 6999.00
1
              HEAD IN LAYER 2 AT END OF TIME STEP 15 IN STRESS PERIOD 7
  ---------------------------------------------------------------------------

           1       2       3       4       5       6       7       8       9      10
 ...................................................................................
   1  1091.04 1087.15 6999.00 6999.00 6999.00 6999.00 6999.00 6999.00 6999.00 6999.00
   2  1087.45 1080.77 1075.41 6999.00 6999.00 1070.24 1069.91 1068.57 6999.00 6999.00
   3  6999.00 1072.71 1068.12 1064.36 1063.77 1064.52 1065.20 1065.60 6999.00 6999.00
   4  1065.23 1065.18 1062.28 1058.88 1057.48 1057.03 1058.40 1061.70 1061.80 6999.00
   5  1061.84 1058.61 1055.49 1053.44 1053.19 1053.55 1053.95 1055.88 1059.90 1063.84
   6  1058.09 1053.52 1049.86 1048.22 1048.50 1049.83 1051.20 1053.15 1056.86 1062.90
   7  1055.19 1048.54 1044.74 1043.35 1044.04 1045.75 1047.78 1050.33 1053.26 6999.00
   8  6999.00 1042.73 1039.94 1038.92 1039.79 1041.58 1043.52 1047.15 1049.52 6999.00
   9  6999.00 1036.73 1035.05 1034.60 1035.63 1037.43 1038.97 1041.41 1045.18 6999.00
  10  6999.00 1030.88 1030.41 1030.82 1032.05 1033.78 1035.13 1037.13 1041.38 1046.50
  11  6999.00 1023.92 1025.00 1027.44 1029.11 1030.89 1032.40 1034.02 1037.57 6999.00
  12  1007.02 1014.71 1019.76 1023.60 1026.28 1028.57 1030.29 1031.75 1035.20 6999.00
  13  1000.30 1007.75 1015.71 1020.99 1024.52 1027.44 1029.98 1032.64 1035.43 6999.00
  14  6999.00 1012.65 1017.51 1022.00 1025.64 1028.58 1031.00 1034.25 1036.91 6999.00
  15  6999.00 6999.00 1026.36 1028.56 1030.80 1032.50 6999.00 6999.00 6999.00 6999.00

 HEAD WILL BE SAVED ON UNIT   58 AT END OF TIME STEP   15, STRESS PERIOD    7
1
  VOLUMETRIC BUDGET FOR ENTIRE MODEL AT END OF TIME STEP   15, STRESS PERIOD   7
  ------------------------------------------------------------------------------

     CUMULATIVE VOLUMES      L**3       RATES FOR THIS TIME STEP      L**3/T
     ------------------                 ------------------------

           IN:                                      IN:
           ---                                      ---
             STORAGE     =    65401664.0000               STORAGE     =           5.2119
       CONSTANT HEAD     =           0.0000         CONSTANT HEAD     =           0.0000
               WELLS     =           0.0000                 WELLS     =           0.0000
     HEAD DEP BOUNDS     =     3802659.5000       HEAD DEP BOUNDS     =           0.2067
      STREAM LEAKAGE     =   726869632.0000        STREAM LEAKAGE     =          38.8524
        UZF RECHARGE     =   247707824.0000          UZF RECHARGE     =           9.1586
               GW ET     =           0.0000                 GW ET     =           0.0000
     SURFACE LEAKAGE     =           0.0000       SURFACE LEAKAGE     =           0.0000

                TOTAL IN =  1043781824.0000                  TOTAL IN =          53.4295

          OUT:                                     OUT:
          ----                                     ----
             STORAGE     =   250650784.0000               STORAGE     =           5.0174
       CONSTANT HEAD     =           0.0000         CONSTANT HEAD     =           0.0000
               WELLS     =   289079936.0000                 WELLS     =          20.0000
     HEAD DEP BOUNDS     =     5209039.5000       HEAD DEP BOUNDS     =           0.2840
      STREAM LEAKAGE     =   150547296.0000        STREAM LEAKAGE     =           7.9998
        UZF RECHARGE     =           0.0000          UZF RECHARGE     =           0.0000
               GW ET     =   348288544.0000                 GW ET     =          20.1279
     SURFACE LEAKAGE     =           0.0000       SURFACE LEAKAGE     =           0.0000

               TOTAL OUT =  1043775488.0000                 TOTAL OUT =          53.4291

                IN - OUT =        6336.0000                  IN - OUT =       4.6158E-04

     PERCENT DISCREPANCY =           0.00         PERCENT DISCREPANCY =           0.00






         TIME SUMMARY AT END OF TIME STEP   15 IN STRESS PERIOD    7
                    SECONDS     MINUTES      HOURS       DAYS        YEARS
                    -----------------------------------------------------------
   TIME STEP LENGTH 3.14103E+05  5235.0      87.251      3.6354     9.95332E-03
 STRESS PERIOD TIME 2.62800E+06  43800.      730.00      30.417     8.32763E-02
         TOTAL TIME 1.83960E+07 3.06600E+05  5110.0      212.92     0.58293    
1
1
                            STRESS PERIOD NO.    8, LENGTH =   2628000.    
                            -----------------------------------------------

                              NUMBER OF TIME STEPS =    15

                               MULTIPLIER FOR DELT =     1.100

                            INITIAL TIME STEP SIZE =   82713.07    

      0 WELLS

 REUSING NON-PARAMETER GHB CELLS FROM LAST STRESS PERIOD

      2 GHB CELLS

 REUSING STREAM SEGMENT DATA FROM LAST STRESS PERIOD



            AREAL INFILTRATION RATE
 READING ON UNIT   19 WITH FORMAT: (10F4.0)            

            1           2           3           4           5           6           7           8           9          10
 ........................................................................................................................
   1   5.0000E-09  1.0000E-08   0.000       0.000       0.000       0.000       0.000       0.000       0.000       0.000    
   2   1.0000E-08  5.0000E-09  1.0000E-08   0.000       0.000      4.0000E-08  4.0000E-08  2.5000E-08   0.000       0.000    
   3    0.000      2.5000E-08  5.0000E-09  5.0000E-09  4.0000E-08  4.0000E-08  2.5000E-08  2.5000E-08   0.000       0.000    
   4   4.0000E-08  2.5000E-08  5.0000E-09  5.0000E-09  5.0000E-09  5.0000E-09  5.0000E-09  5.0000E-09  1.0000E-08   0.000    
   5   4.0000E-08  2.5000E-08  5.0000E-09  5.0000E-09  5.0000E-09  5.0000E-09  5.0000E-09  5.0000E-09  5.0000E-09  5.0000E-09
   6   4.0000E-08  2.5000E-08  2.5000E-08  1.0000E-08  1.0000E-08  5.0000E-09  5.0000E-09  5.0000E-09  5.0000E-09  2.5000E-08
   7   4.0000E-08  2.5000E-08  2.5000E-08  1.0000E-08  1.0000E-08  5.0000E-09  5.0000E-09  1.0000E-08  1.0000E-08   0.000    
   8    0.000      2.5000E-08  2.5000E-08  1.0000E-08  1.0000E-08  5.0000E-09  5.0000E-09  1.0000E-08  2.5000E-08   0.000    
   9    0.000      2.5000E-08  2.5000E-08  1.0000E-08  1.0000E-08  5.0000E-09  5.0000E-09  1.0000E-08  2.5000E-08   0.000    
  10    0.000      2.5000E-08  2.5000E-08  1.0000E-08  1.0000E-08  5.0000E-09  5.0000E-09  1.0000E-08  2.5000E-08  4.0000E-08
  11    0.000      5.0000E-09  5.0000E-09  5.0000E-09  5.0000E-09  5.0000E-09  5.0000E-09  1.0000E-08  2.5000E-08   0.000    
  12   5.0000E-09  5.0000E-09  5.0000E-09  5.0000E-09  5.0000E-09  5.0000E-09  5.0000E-09  5.0000E-09  1.0000E-08   0.000    
  13   5.0000E-09  5.0000E-09  1.0000E-08  1.0000E-08  1.0000E-08  1.0000E-08  1.0000E-08  5.0000E-09  5.0000E-09   0.000    
  14    0.000      1.0000E-08  2.5000E-08  2.5000E-08  2.5000E-08  2.5000E-08  2.5000E-08  1.0000E-08  5.0000E-09   0.000    
  15    0.000       0.000      4.0000E-08  4.0000E-08  4.0000E-08  4.0000E-08   0.000       0.000       0.000       0.000    

USING ET RATE FROM PREVIOUS STRESS PERIOD. CURRENT PERIOD IS:       8

 USING ET EXTINCTION DEPTH FROM PREVIOUS STRESS PERIOD. CURRENT PERIOD IS:       8

 USING EXTINCTION WATER CONTENT FROM PREVIOUS STRESS PERIOD. CURRENT PERIOD IS:       8
 
 SOLVING FOR HEAD 
                                                   Max.-Head-Change                         Max.-Flux-Residual
  Residual-Control   Outer-Iter.   Inner-Iter.     Column Row Layer    Maximum-Head-Change  Column Row Layer    Maximum-Flux-Residual          L2-NORM 
          0                 1           2             4    7     1       0.3440798829E-01       4    7    1         0.1893563969E+01      0.5975371342E+01
          0                 2           2             6    2     1       0.6905146783E-02       6    2    1         0.1903290749E+00      0.5927164483E+00
          0                 3           2             6    2     1       0.2188194319E-02       6    2    1         0.6027707527E-01      0.9951216875E-01
          0                 4           1             6    2     1       0.6935209750E-03       6    2    1         0.1910509989E-01      0.2752685303E-01
          0                 5           1             6    2     1       0.2198199651E-03       6    2    1         0.6055021646E-02      0.8524705315E-02
          0                 6           1             6    2     1       0.6967759219E-04       6    2    1         0.1919270708E-02      0.2686223497E-02

    ------------------------------------------------
       NWT REQUIRED            6 OUTER ITERATIONS 
       AND A TOTAL OF          9 INNER ITERATIONS.
    ------------------------------------------------

 NO OUTPUT CONTROL FOR STRESS PERIOD    8   TIME STEP    1
 
 SOLVING FOR HEAD 
                                                   Max.-Head-Change                         Max.-Flux-Residual
  Residual-Control   Outer-Iter.   Inner-Iter.     Column Row Layer    Maximum-Head-Change  Column Row Layer    Maximum-Flux-Residual          L2-NORM 
          0                 1           2             4    7     1       0.3778613812E-01       4    7    1         0.1890420996E+01      0.5950142778E+01
          0                 2           2             7    2     1       0.7383151246E-02       7    2    1         0.1851962942E+00      0.5838008118E+00
          0                 3           2             7    2     1       0.2336210300E-02       7    2    1         0.5857140437E-01      0.9516875446E-01
          0                 4           1             7    2     1       0.7392848803E-03       7    2    1         0.1853636968E-01      0.2590770683E-01
          0                 5           1             7    2     1       0.2339491608E-03       7    2    1         0.5865598070E-02      0.7951149097E-02
          0                 6           1             7    2     1       0.7403399683E-04       7    2    1         0.1856217938E-02      0.2484673968E-02

    ------------------------------------------------
       NWT REQUIRED            6 OUTER ITERATIONS 
       AND A TOTAL OF          9 INNER ITERATIONS.
    ------------------------------------------------

 NO OUTPUT CONTROL FOR STRESS PERIOD    8   TIME STEP    2
 
 SOLVING FOR HEAD 
                                                   Max.-Head-Change                         Max.-Flux-Residual
  Residual-Control   Outer-Iter.   Inner-Iter.     Column Row Layer    Maximum-Head-Change  Column Row Layer    Maximum-Flux-Residual          L2-NORM 
          0                 1           2             4    7     1       0.4149143231E-01       4    7    1         0.1887243119E+01      0.5924122324E+01
          0                 2           2             6    2     1       0.7573962630E-02       7    2    1         0.1727092381E+00      0.5756351474E+00
          0                 3           2             6    2     1       0.2354414903E-02       6    2    1         0.5361759386E-01      0.9114357238E-01
          0                 4           1             6    2     1       0.7320091111E-03       6    2    1         0.1667097930E-01      0.2432856382E-01
          0                 5           1             6    2     1       0.2276097818E-03       6    2    1         0.5183082849E-02      0.7377476533E-02
          0                 6           1             6    2     1       0.7077629373E-04       6    2    1         0.1611676422E-02      0.2280398978E-02

    ------------------------------------------------
       NWT REQUIRED            6 OUTER ITERATIONS 
       AND A TOTAL OF          9 INNER ITERATIONS.
    ------------------------------------------------

 NO OUTPUT CONTROL FOR STRESS PERIOD    8   TIME STEP    3
 
 SOLVING FOR HEAD 
                                                   Max.-Head-Change                         Max.-Flux-Residual
  Residual-Control   Outer-Iter.   Inner-Iter.     Column Row Layer    Maximum-Head-Change  Column Row Layer    Maximum-Flux-Residual          L2-NORM 
          0                 1           2             4    7     1       0.4555301545E-01       4    7    1         0.1883860524E+01      0.5896961627E+01
          0                 2           2             7    2     1       0.8049446747E-02       7    2    1         0.1669689779E+00      0.5674502398E+00
          0                 3           2             7    2     1       0.2497783875E-02       7    2    1         0.5178226625E-01      0.8755289650E-01
          0                 4           1             7    2     1       0.7751498205E-03       7    2    1         0.1607121917E-01      0.2306917925E-01
          0                 5           1             7    2     1       0.2405653528E-03       7    2    1         0.4987326833E-02      0.6957340973E-02
          0                 6           1             7    2     1       0.7465951779E-04       7    2    1         0.1547834256E-02      0.2139951398E-02

    ------------------------------------------------
       NWT REQUIRED            6 OUTER ITERATIONS 
       AND A TOTAL OF          9 INNER ITERATIONS.
    ------------------------------------------------

 NO OUTPUT CONTROL FOR STRESS PERIOD    8   TIME STEP    4
 
 SOLVING FOR HEAD 
                                                   Max.-Head-Change                         Max.-Flux-Residual
  Residual-Control   Outer-Iter.   Inner-Iter.     Column Row Layer    Maximum-Head-Change  Column Row Layer    Maximum-Flux-Residual          L2-NORM 
          0                 1           2             4    7     1       0.5000295023E-01       4    7    1         0.1880187889E+01      0.5868910768E+01
          0                 2           2             6    2     1       0.8627325165E-02       6    2    1         0.1625617994E+00      0.5603928721E+00
          0                 3           2             6    2     1       0.2652300876E-02       6    2    1         0.4994057979E-01      0.8473895296E-01
          0                 4           1             6    2     1       0.8155574880E-03       6    2    1         0.1535684331E-01      0.2208733586E-01
          0                 5           1             6    2     1       0.2508028817E-03       6    2    1         0.4722026884E-02      0.6624478826E-02
          0                 6           1             6    2     1       0.7713208280E-04       6    2    1         0.1452189043E-02      0.2026557082E-02

    ------------------------------------------------
       NWT REQUIRED            6 OUTER ITERATIONS 
       AND A TOTAL OF          9 INNER ITERATIONS.
    ------------------------------------------------

 OUTPUT CONTROL FOR STRESS PERIOD    8   TIME STEP    5
    PRINT BUDGET
    SAVE BUDGET

  HEAD DEP BOUNDS   PERIOD    8   STEP     5
 BOUNDARY      1   LAYER   1   ROW    13   COL     1   RATE   -0.283731    
 BOUNDARY      2   LAYER   1   ROW    14   COL     9   RATE    0.206720    



 STREAM LISTING     PERIOD      8   STEP        5

 LAYER ROW COL. STREAM  RCH.  FLOW INTO     FLOW TO   FLOW OUT OF   OVRLND.     DIRECT     STREAM       STREAM     STREAM     STREAM   STREAMBED  STREAMBED
                SEG.NO.  NO.  STRM. RCH.    AQUIFER    STRM. RCH.    RUNOFF     PRECIP       ET          HEAD       DEPTH      WIDTH   CONDCTNC.   GRADIENT

   1    1    1     1     1    2.5000E+01  1.1653E+00   2.3835E+01  0.000E+00  0.000E+00  0.000E+00  1.09422E+03  1.171E+00  1.295E+01  5.826E-01  6.668E-01
   1    2    2     1     2    2.3835E+01  2.6537E+00   2.1181E+01  0.000E+00  0.000E+00  0.000E+00  1.08920E+03  1.142E+00  1.255E+01  8.786E-01  1.007E+00
   1    3    3     1     3    2.1181E+01  2.9279E+00   1.8253E+01  0.000E+00  0.000E+00  0.000E+00  1.08351E+03  1.095E+00  1.192E+01  7.149E-01  1.365E+00
   1    3    4     1     4    1.8253E+01  2.4882E+00   1.5765E+01  0.000E+00  0.000E+00  0.000E+00  1.07846E+03  1.050E+00  1.107E+01  6.144E-01  1.350E+00
   1    4    5     2     1    5.7649E+00  2.6734E+00   3.0915E+00  0.000E+00  0.000E+00  0.000E+00  1.07236E+03  4.274E-01  1.200E+01  7.800E-01  1.142E+00
   1    5    6     2     2    3.0915E+00  1.9644E+00   1.1271E+00  0.000E+00  0.000E+00  0.000E+00  1.06678E+03  2.739E-01  1.200E+01  6.000E-01  1.091E+00
   1    6    6     2     3    1.1271E+00  1.1271E+00   0.0000E+00  0.000E+00  0.000E+00  0.000E+00  1.06183E+03  4.232E-02  1.200E+01  6.000E-01  1.014E+00
   1    7    6     2     4    0.0000E+00  0.0000E+00   0.0000E+00  0.000E+00  0.000E+00  0.000E+00  1.05708E+03  0.000E+00  1.200E+01  6.000E-01  1.000E+00
   1    8    6     2     5    0.0000E+00  0.0000E+00   0.0000E+00  0.000E+00  0.000E+00  0.000E+00  1.05236E+03  0.000E+00  1.200E+01  6.000E-01  1.000E+00
   1    3    5     3     1    1.0000E+01  1.4592E+00   8.5408E+00  0.000E+00  0.000E+00  0.000E+00  1.07555E+03  1.909E+00  9.636E+00  7.227E-01  1.009E+00
   1    3    6     3     2    8.5408E+00  1.1939E+00   7.3469E+00  0.000E+00  0.000E+00  0.000E+00  1.07264E+03  1.727E+00  8.909E+00  6.682E-01  8.934E-01
   1    3    7     3     3    7.3469E+00  8.1838E-01   6.5285E+00  0.000E+00  0.000E+00  0.000E+00  1.06987E+03  1.555E+00  8.218E+00  5.547E-01  7.376E-01
   1    4    8     3     4    6.5285E+00  1.5245E+00   5.0040E+00  0.000E+00  0.000E+00  0.000E+00  1.06682E+03  1.364E+00  7.455E+00  6.709E-01  1.136E+00
   1    5    8     3     5    5.0040E+00  1.5013E+00   3.5026E+00  0.000E+00  0.000E+00  0.000E+00  1.06362E+03  1.164E+00  6.655E+00  4.991E-01  1.504E+00
   1    6    8     3     6    3.5026E+00  5.5980E-01   2.9428E+00  0.000E+00  0.000E+00  0.000E+00  1.06158E+03  1.036E+00  6.145E+00  1.844E-01  1.518E+00
   1    5   10     4     1    1.0000E+01  9.0525E-01   9.0947E+00  0.000E+00  0.000E+00  0.000E+00  1.07835E+03  6.210E-01  1.000E+01  2.500E-01  1.207E+00
   1    5    9     4     2    9.0947E+00  1.7835E+00   7.3113E+00  0.000E+00  0.000E+00  0.000E+00  1.07148E+03  5.670E-01  1.000E+01  5.000E-01  1.189E+00
   1    6    8     4     3    7.3113E+00  1.2257E+00   6.0855E+00  0.000E+00  0.000E+00  0.000E+00  1.06368E+03  5.021E-01  1.000E+01  3.500E-01  1.167E+00
   1    6    8     5     1    9.0284E+00  3.0124E-01   8.7271E+00  0.000E+00  0.000E+00  0.000E+00  1.05864E+03  6.442E-01  1.409E+01  5.634E-01  1.782E-01
   1    7    7     5     2    8.7271E+00  1.2991E+00   7.4280E+00  0.000E+00  0.000E+00  0.000E+00  1.05412E+03  6.233E-01  1.331E+01  6.655E-01  6.507E-01
   1    8    7     5     3    7.4280E+00  9.8684E-01   6.4412E+00  0.000E+00  0.000E+00  0.000E+00  1.04984E+03  5.909E-01  1.215E+01  4.251E-01  7.739E-01
   1    8    6     5     4    6.4412E+00  9.6764E-01   5.4736E+00  0.000E+00  0.000E+00  0.000E+00  1.04681E+03  5.603E-01  1.109E+01  2.772E-01  1.164E+00
   1    9    6     6     1    5.4736E+00  1.9194E+00   3.5541E+00  0.000E+00  0.000E+00  0.000E+00  1.04316E+03  4.372E-01  1.200E+01  6.000E-01  1.066E+00
   1   10    7     6     2    3.5541E+00  1.1854E+00   2.3687E+00  0.000E+00  0.000E+00  0.000E+00  1.03852E+03  3.395E-01  1.200E+01  6.000E-01  6.585E-01
   1   11    7     6     3    2.3687E+00  8.7727E-01   1.4915E+00  0.000E+00  0.000E+00  0.000E+00  1.03390E+03  2.626E-01  1.200E+01  6.000E-01  4.874E-01
   1   12    7     6     4    1.4915E+00  4.7580E-01   1.0157E+00  0.000E+00  0.000E+00  0.000E+00  1.02929E+03  2.027E-01  1.200E+01  6.000E-01  2.643E-01
   1   13    7     6     5    1.0157E+00 -7.9394E-01   1.8096E+00  0.000E+00  0.000E+00  0.000E+00  1.02613E+03  2.178E-01  1.200E+01  2.400E-01 -1.103E+00
   1   14    9     7     1    1.5000E+02  1.7190E+00   1.4828E+02  0.000E+00  0.000E+00  0.000E+00  1.03987E+03  2.287E+00  5.529E+01  5.593E+00  1.025E-01
   1   13    8     7     2    1.4828E+02  1.7058E+00   1.4658E+02  0.000E+00  0.000E+00  0.000E+00  1.03478E+03  2.278E+00  5.525E+01  6.147E+00  9.250E-02
   1   13    7     7     3    1.4658E+02  1.4163E+00   1.4516E+02  0.000E+00  0.000E+00  0.000E+00  1.02969E+03  2.269E+00  5.521E+01  5.584E+00  8.455E-02
   1   13    6     8     1    1.4697E+02  2.4764E-01   1.4672E+02  0.000E+00  0.000E+00  0.000E+00  1.02467E+03  2.794E+00  4.052E+01  4.129E+00  1.999E-02
   1   13    5     8     2    1.4672E+02 -3.0356E-01   1.4702E+02  0.000E+00  0.000E+00  0.000E+00  1.01842E+03  2.795E+00  4.052E+01  4.129E+00 -2.450E-02
   1   13    4     8     3    1.4702E+02 -1.1279E+00   1.4815E+02  0.000E+00  0.000E+00  0.000E+00  1.01217E+03  2.800E+00  4.060E+01  4.137E+00 -9.088E-02
   1   13    3     8     4    1.4815E+02 -1.8134E+00   1.4997E+02  0.000E+00  0.000E+00  0.000E+00  1.00594E+03  2.810E+00  4.075E+01  4.152E+00 -1.456E-01
   1   13    2     8     5    1.4997E+02 -1.9177E+00   1.5188E+02  0.000E+00  0.000E+00  0.000E+00  9.99698E+02  2.823E+00  4.094E+01  4.172E+00 -1.532E-01
   1   13    1     8     6    1.5188E+02 -1.8986E+00   1.5378E+02  0.000E+00  0.000E+00  0.000E+00  9.94712E+02  2.837E+00  4.113E+01  2.515E+00 -2.516E-01



 UBDSV3 SAVING "           GW ET" ON UNIT  61 AT TIME STEP 5, STRESS PERIOD 8
 UBDSV3 SAVING "    UZF RECHARGE" ON UNIT  61 AT TIME STEP 5, STRESS PERIOD 8
 UBDSV3 SAVING " SURFACE LEAKAGE" ON UNIT  61 AT TIME STEP 5, STRESS PERIOD 8
 UBDSV3 SAVING "       HORT+DUNN" ON UNIT  61 AT TIME STEP 5, STRESS PERIOD 8
 UBDSV3 SAVING "  STORAGE CHANGE" ON UNIT  61 AT TIME STEP 5, STRESS PERIOD 8


UNSATURATED ZONE PACKAGE VOLUMETRIC BUDGET FOR  TIME STEP     5 STRESS PERIOD    8
  ------------------------------------------------------------------------------



     CUMULATIVE VOLUMES      L**3       RATES FOR THIS TIME STEP      L**3/T
     ------------------                 ------------------------

           IN:                                      IN:
           ---                                      ---
        INFILTRATION =  1290919169.0557          INFILTRATION =          42.3750

          OUT:                                     OUT:
          ----                                     ----
              UZF ET =  1449927118.9941                UZF ET =          68.5265
        UZF RECHARGE =   254136842.8140          UZF RECHARGE =          12.5744

            IN - OUT =  -413144792.7524              IN - OUT =         -38.7258

          STORAGE:                                 STORAGE:
          --------                                 --------
      STORAGE CHANGE =  -412917770.4055        STORAGE CHANGE =         -38.7258

 PERCENT DISCREPANCY IS DIFFERENCE BETWEEN IN-OUT MINUS CHANGE IN STORAGE
 DIVIDED BY THE AVERAGE OF IN AND OUT TIMES 100

 PERCENT DISCREPANCY =          -0.00     PERCENT DISCREPANCY =           0.00






1
  VOLUMETRIC BUDGET FOR ENTIRE MODEL AT END OF TIME STEP    5, STRESS PERIOD   8
  ------------------------------------------------------------------------------

     CUMULATIVE VOLUMES      L**3       RATES FOR THIS TIME STEP      L**3/T
     ------------------                 ------------------------

           IN:                                      IN:
           ---                                      ---
             STORAGE     =    66989680.0000               STORAGE     =           2.9588
       CONSTANT HEAD     =           0.0000         CONSTANT HEAD     =           0.0000
               WELLS     =           0.0000                 WELLS     =           0.0000
     HEAD DEP BOUNDS     =     3907048.7500       HEAD DEP BOUNDS     =           0.2067
      STREAM LEAKAGE     =   746556928.0000        STREAM LEAKAGE     =          39.0730
        UZF RECHARGE     =   254136848.0000          UZF RECHARGE     =          12.5744
               GW ET     =           0.0000                 GW ET     =           0.0000
     SURFACE LEAKAGE     =           0.0000       SURFACE LEAKAGE     =           0.0000

                TOTAL IN =  1071590464.0000                  TOTAL IN =          54.8129

          OUT:                                     OUT:
          ----                                     ----
             STORAGE     =   264160992.0000               STORAGE     =          26.5509
       CONSTANT HEAD     =           0.0000         CONSTANT HEAD     =           0.0000
               WELLS     =   289079936.0000                 WELLS     =           0.0000
     HEAD DEP BOUNDS     =     5352371.0000       HEAD DEP BOUNDS     =           0.2837
      STREAM LEAKAGE     =   154541552.0000        STREAM LEAKAGE     =           7.8551
        UZF RECHARGE     =           0.0000          UZF RECHARGE     =           0.0000
               GW ET     =   358448960.0000                 GW ET     =          20.1223
     SURFACE LEAKAGE     =           0.0000       SURFACE LEAKAGE     =           0.0000

               TOTAL OUT =  1071583872.0000                 TOTAL OUT =          54.8120

                IN - OUT =        6592.0000                  IN - OUT =       8.9264E-04

     PERCENT DISCREPANCY =           0.00         PERCENT DISCREPANCY =           0.00






         TIME SUMMARY AT END OF TIME STEP    5 IN STRESS PERIOD    8
                    SECONDS     MINUTES      HOURS       DAYS        YEARS
                    -----------------------------------------------------------
   TIME STEP LENGTH 1.21100E+05  2018.3      33.639      1.4016     3.83743E-03
 STRESS PERIOD TIME 5.04972E+05  8416.2      140.27      5.8446     1.60016E-02
         TOTAL TIME 1.89010E+07 3.15016E+05  5250.3      218.76     0.59894    
1
 
 SOLVING FOR HEAD 
                                                   Max.-Head-Change                         Max.-Flux-Residual
  Residual-Control   Outer-Iter.   Inner-Iter.     Column Row Layer    Maximum-Head-Change  Column Row Layer    Maximum-Flux-Residual          L2-NORM 
          0                 1           2             4    7     1       0.5487616850E-01       4    7    1         0.1876170366E+01      0.5840558440E+01
          0                 2           2             6    2     1       0.9439938268E-02       6    2    1         0.1617445876E+00      0.5554257390E+00
          0                 3           2             6    2     1       0.2901174841E-02       6    2    1         0.4967268792E-01      0.8362366022E-01
          0                 4           1             6    2     1       0.8917994857E-03       6    2    1         0.1526954105E-01      0.2182303336E-01
          0                 5           1             6    2     1       0.2741624918E-03       6    2    1         0.4693691461E-02      0.6551571933E-02
          0                 6           1             6    2     1       0.8428957456E-04       6    2    1         0.1443020140E-02      0.2004512259E-02

    ------------------------------------------------
       NWT REQUIRED            6 OUTER ITERATIONS 
       AND A TOTAL OF          9 INNER ITERATIONS.
    ------------------------------------------------

 NO OUTPUT CONTROL FOR STRESS PERIOD    8   TIME STEP    6
 
 SOLVING FOR HEAD 
                                                   Max.-Head-Change                         Max.-Flux-Residual
  Residual-Control   Outer-Iter.   Inner-Iter.     Column Row Layer    Maximum-Head-Change  Column Row Layer    Maximum-Flux-Residual          L2-NORM 
          0                 1           2             4    7     1       0.6021032054E-01       4    7    1         0.1871765836E+01      0.5810721911E+01
          0                 2           2             7    2     1       0.9940110317E-02       4    7    1         0.1608196638E+00      0.5456346447E+00
          0                 3           2             7    2     1       0.3046958520E-02       7    2    1         0.4752273616E-01      0.7725243442E-01
          0                 4           1             7    2     1       0.9339051976E-03       7    2    1         0.1456927312E-01      0.1890228328E-01
          0                 5           1             7    2     1       0.2862070588E-03       7    2    1         0.4465207539E-02      0.5444169372E-02
          0                 6           1             7    2     1       0.8769912482E-04       7    2    1         0.1368392568E-02      0.1611485740E-02

    ------------------------------------------------
       NWT REQUIRED            6 OUTER ITERATIONS 
       AND A TOTAL OF          9 INNER ITERATIONS.
    ------------------------------------------------

 NO OUTPUT CONTROL FOR STRESS PERIOD    8   TIME STEP    7
 
 SOLVING FOR HEAD 
                                                   Max.-Head-Change                         Max.-Flux-Residual
  Residual-Control   Outer-Iter.   Inner-Iter.     Column Row Layer    Maximum-Head-Change  Column Row Layer    Maximum-Flux-Residual          L2-NORM 
          0                 1           2             4    7     1       0.6604593834E-01       4    7    1         0.1866930234E+01      0.5762916334E+01
          0                 2           2             7    2     1       0.8821809415E-02       4    7    1         0.1603287464E+00      0.5217018554E+00
          0                 3           2             7    2     1       0.2430301928E-02       7    2    1         0.3447342698E-01      0.6209908489E-01
          0                 4           1             7    2     1       0.6695244611E-03       7    2    1         0.9500324316E-02      0.1267359939E-01
          0                 5           1             7    2     1       0.1844481708E-03       7    2    1         0.2616948571E-02      0.3310307129E-02
          0                 6           1             7    2     1       0.5081432209E-04       7    2    1         0.7209751657E-03      0.9049669249E-03

    ------------------------------------------------
       NWT REQUIRED            6 OUTER ITERATIONS 
       AND A TOTAL OF          9 INNER ITERATIONS.
    ------------------------------------------------

 NO OUTPUT CONTROL FOR STRESS PERIOD    8   TIME STEP    8
 
 SOLVING FOR HEAD 
                                                   Max.-Head-Change                         Max.-Flux-Residual
  Residual-Control   Outer-Iter.   Inner-Iter.     Column Row Layer    Maximum-Head-Change  Column Row Layer    Maximum-Flux-Residual          L2-NORM 
          0                 1           2             4    7     1       0.7242643082E-01       4    7    1         0.1861619259E+01      0.5721005838E+01
          0                 2           2             6    2     1       0.7072835638E-02       4    7    1         0.1597890782E+00      0.5085007005E+00
          0                 3           2             6    2     1       0.1952131378E-02       6    2    1         0.2513848960E-01      0.5593655902E-01
          0                 4           1             6    2     1       0.5389849297E-03       6    2    1         0.6940895786E-02      0.1044903952E-01
          0                 5           1             6    2     1       0.1488445622E-03       6    2    1         0.1916373072E-02      0.2670260259E-02
          0                 6           1             6    2     1       0.4110922601E-04       6    2    1         0.5292607571E-03      0.7280127190E-03

    ------------------------------------------------
       NWT REQUIRED            6 OUTER ITERATIONS 
       AND A TOTAL OF          9 INNER ITERATIONS.
    ------------------------------------------------

 NO OUTPUT CONTROL FOR STRESS PERIOD    8   TIME STEP    9
 
 SOLVING FOR HEAD 
                                                   Max.-Head-Change                         Max.-Flux-Residual
  Residual-Control   Outer-Iter.   Inner-Iter.     Column Row Layer    Maximum-Head-Change  Column Row Layer    Maximum-Flux-Residual          L2-NORM 
          0                 1           2             4    7     1       0.7939840178E-01       4    7    1         0.1855784413E+01      0.5685042492E+01
          0                 2           2             6    2     1       0.7718993352E-02       4    7    1         0.1591968074E+00      0.5032593502E+00
          0                 3           2             6    2     1       0.2129509897E-02       6    2    1         0.2493865929E-01      0.5503032324E-01
          0                 4           1             6    2     1       0.5876855273E-03       6    2    1         0.6882352750E-02      0.1028256017E-01
          0                 5           1             6    2     1       0.1622172261E-03       6    2    1         0.1899341063E-02      0.2634701890E-02
          0                 6           1             6    2     1       0.4478150242E-04       6    2    1         0.5243075495E-03      0.7190540298E-03

    ------------------------------------------------
       NWT REQUIRED            6 OUTER ITERATIONS 
       AND A TOTAL OF          9 INNER ITERATIONS.
    ------------------------------------------------

 OUTPUT CONTROL FOR STRESS PERIOD    8   TIME STEP   10
    PRINT BUDGET
    SAVE BUDGET

  HEAD DEP BOUNDS   PERIOD    8   STEP    10
 BOUNDARY      1   LAYER   1   ROW    13   COL     1   RATE   -0.283311    
 BOUNDARY      2   LAYER   1   ROW    14   COL     9   RATE    0.206710    



 STREAM LISTING     PERIOD      8   STEP       10

 LAYER ROW COL. STREAM  RCH.  FLOW INTO     FLOW TO   FLOW OUT OF   OVRLND.     DIRECT     STREAM       STREAM     STREAM     STREAM   STREAMBED  STREAMBED
                SEG.NO.  NO.  STRM. RCH.    AQUIFER    STRM. RCH.    RUNOFF     PRECIP       ET          HEAD       DEPTH      WIDTH   CONDCTNC.   GRADIENT

   1    1    1     1     1    2.5000E+01  1.1678E+00   2.3832E+01  0.000E+00  0.000E+00  0.000E+00  1.09422E+03  1.171E+00  1.295E+01  5.826E-01  6.682E-01
   1    2    2     1     2    2.3832E+01  2.6550E+00   2.1177E+01  0.000E+00  0.000E+00  0.000E+00  1.08920E+03  1.142E+00  1.255E+01  8.785E-01  1.007E+00
   1    3    3     1     3    2.1177E+01  2.9276E+00   1.8250E+01  0.000E+00  0.000E+00  0.000E+00  1.08351E+03  1.095E+00  1.191E+01  7.148E-01  1.365E+00
   1    3    4     1     4    1.8250E+01  2.4879E+00   1.5762E+01  0.000E+00  0.000E+00  0.000E+00  1.07846E+03  1.050E+00  1.107E+01  6.144E-01  1.350E+00
   1    4    5     2     1    5.7617E+00  2.6733E+00   3.0884E+00  0.000E+00  0.000E+00  0.000E+00  1.07236E+03  4.273E-01  1.200E+01  7.800E-01  1.142E+00
   1    5    6     2     2    3.0884E+00  1.9642E+00   1.1242E+00  0.000E+00  0.000E+00  0.000E+00  1.06678E+03  2.737E-01  1.200E+01  6.000E-01  1.091E+00
   1    6    6     2     3    1.1242E+00  1.1242E+00   0.0000E+00  0.000E+00  0.000E+00  0.000E+00  1.06183E+03  4.225E-02  1.200E+01  6.000E-01  1.014E+00
   1    7    6     2     4    0.0000E+00  0.0000E+00   0.0000E+00  0.000E+00  0.000E+00  0.000E+00  1.05708E+03  0.000E+00  1.200E+01  6.000E-01  1.000E+00
   1    8    6     2     5    0.0000E+00  0.0000E+00   0.0000E+00  0.000E+00  0.000E+00  0.000E+00  1.05236E+03  0.000E+00  1.200E+01  6.000E-01  1.000E+00
   1    3    5     3     1    1.0000E+01  1.5670E+00   8.4330E+00  0.000E+00  0.000E+00  0.000E+00  1.07555E+03  1.909E+00  9.636E+00  7.227E-01  1.084E+00
   1    3    6     3     2    8.4330E+00  1.3116E+00   7.1213E+00  0.000E+00  0.000E+00  0.000E+00  1.07264E+03  1.727E+00  8.909E+00  6.682E-01  9.815E-01
   1    3    7     3     3    7.1213E+00  8.9555E-01   6.2258E+00  0.000E+00  0.000E+00  0.000E+00  1.06987E+03  1.555E+00  8.218E+00  5.547E-01  8.072E-01
   1    4    8     3     4    6.2258E+00  1.5348E+00   4.6910E+00  0.000E+00  0.000E+00  0.000E+00  1.06682E+03  1.364E+00  7.455E+00  6.709E-01  1.144E+00
   1    5    8     3     5    4.6910E+00  1.4999E+00   3.1911E+00  0.000E+00  0.000E+00  0.000E+00  1.06362E+03  1.164E+00  6.655E+00  4.991E-01  1.503E+00
   1    6    8     3     6    3.1911E+00  5.5980E-01   2.6313E+00  0.000E+00  0.000E+00  0.000E+00  1.06158E+03  1.036E+00  6.145E+00  1.844E-01  1.518E+00
   1    5   10     4     1    1.0000E+01  9.0525E-01   9.0947E+00  0.000E+00  0.000E+00  0.000E+00  1.07835E+03  6.210E-01  1.000E+01  2.500E-01  1.207E+00
   1    5    9     4     2    9.0947E+00  1.7835E+00   7.3113E+00  0.000E+00  0.000E+00  0.000E+00  1.07148E+03  5.670E-01  1.000E+01  5.000E-01  1.189E+00
   1    6    8     4     3    7.3113E+00  1.2257E+00   6.0855E+00  0.000E+00  0.000E+00  0.000E+00  1.06368E+03  5.021E-01  1.000E+01  3.500E-01  1.167E+00
   1    6    8     5     1    8.7168E+00  2.9173E-01   8.4251E+00  0.000E+00  0.000E+00  0.000E+00  1.05864E+03  6.363E-01  1.379E+01  5.516E-01  1.763E-01
   1    7    7     5     2    8.4251E+00  1.2749E+00   7.1502E+00  0.000E+00  0.000E+00  0.000E+00  1.05412E+03  6.153E-01  1.302E+01  6.510E-01  6.528E-01
   1    8    7     5     3    7.1502E+00  9.6249E-01   6.1877E+00  0.000E+00  0.000E+00  0.000E+00  1.04983E+03  5.828E-01  1.186E+01  4.152E-01  7.727E-01
   1    8    6     5     4    6.1877E+00  9.3664E-01   5.2511E+00  0.000E+00  0.000E+00  0.000E+00  1.04680E+03  5.523E-01  1.082E+01  2.705E-01  1.154E+00
   1    9    6     6     1    5.2511E+00  1.9061E+00   3.3450E+00  0.000E+00  0.000E+00  0.000E+00  1.04315E+03  4.246E-01  1.200E+01  6.000E-01  1.059E+00
   1   10    7     6     2    3.3450E+00  1.1760E+00   2.1689E+00  0.000E+00  0.000E+00  0.000E+00  1.03851E+03  3.253E-01  1.200E+01  6.000E-01  6.534E-01
   1   11    7     6     3    2.1689E+00  8.6044E-01   1.3085E+00  0.000E+00  0.000E+00  0.000E+00  1.03388E+03  2.467E-01  1.200E+01  6.000E-01  4.780E-01
   1   12    7     6     4    1.3085E+00  4.5511E-01   8.5338E-01  0.000E+00  0.000E+00  0.000E+00  1.02928E+03  1.855E-01  1.200E+01  6.000E-01  2.528E-01
   1   13    7     6     5    8.5338E-01 -7.9459E-01   1.6480E+00  0.000E+00  0.000E+00  0.000E+00  1.02611E+03  2.024E-01  1.200E+01  2.400E-01 -1.104E+00
   1   14    9     7     1    1.5000E+02  1.7175E+00   1.4828E+02  0.000E+00  0.000E+00  0.000E+00  1.03987E+03  2.287E+00  5.529E+01  5.593E+00  1.024E-01
   1   13    8     7     2    1.4828E+02  1.7038E+00   1.4658E+02  0.000E+00  0.000E+00  0.000E+00  1.03478E+03  2.278E+00  5.525E+01  6.147E+00  9.240E-02
   1   13    7     7     3    1.4658E+02  1.4860E+00   1.4509E+02  0.000E+00  0.000E+00  0.000E+00  1.02969E+03  2.269E+00  5.521E+01  5.584E+00  8.871E-02
   1   13    6     8     1    1.4674E+02  3.1065E-01   1.4643E+02  0.000E+00  0.000E+00  0.000E+00  1.02467E+03  2.793E+00  4.049E+01  4.126E+00  2.509E-02
   1   13    5     8     2    1.4643E+02 -2.6715E-01   1.4670E+02  0.000E+00  0.000E+00  0.000E+00  1.01842E+03  2.792E+00  4.049E+01  4.126E+00 -2.158E-02
   1   13    4     8     3    1.4670E+02 -1.0868E+00   1.4778E+02  0.000E+00  0.000E+00  0.000E+00  1.01217E+03  2.797E+00  4.056E+01  4.133E+00 -8.764E-02
   1   13    3     8     4    1.4778E+02 -1.7653E+00   1.4955E+02  0.000E+00  0.000E+00  0.000E+00  1.00593E+03  2.807E+00  4.071E+01  4.148E+00 -1.419E-01
   1   13    2     8     5    1.4955E+02 -1.9186E+00   1.5147E+02  0.000E+00  0.000E+00  0.000E+00  9.99695E+02  2.820E+00  4.090E+01  4.167E+00 -1.535E-01
   1   13    1     8     6    1.5147E+02 -1.8763E+00   1.5334E+02  0.000E+00  0.000E+00  0.000E+00  9.94709E+02  2.834E+00  4.109E+01  2.512E+00 -2.490E-01



 UBDSV3 SAVING "           GW ET" ON UNIT  61 AT TIME STEP 10, STRESS PERIOD 8
 UBDSV3 SAVING "    UZF RECHARGE" ON UNIT  61 AT TIME STEP 10, STRESS PERIOD 8
 UBDSV3 SAVING " SURFACE LEAKAGE" ON UNIT  61 AT TIME STEP 10, STRESS PERIOD 8
 UBDSV3 SAVING "       HORT+DUNN" ON UNIT  61 AT TIME STEP 10, STRESS PERIOD 8
 UBDSV3 SAVING "  STORAGE CHANGE" ON UNIT  61 AT TIME STEP 10, STRESS PERIOD 8


UNSATURATED ZONE PACKAGE VOLUMETRIC BUDGET FOR  TIME STEP    10 STRESS PERIOD    8
  ------------------------------------------------------------------------------



     CUMULATIVE VOLUMES      L**3       RATES FOR THIS TIME STEP      L**3/T
     ------------------                 ------------------------

           IN:                                      IN:
           ---                                      ---
        INFILTRATION =  1325381138.9717          INFILTRATION =          42.3750

          OUT:                                     OUT:
          ----                                     ----
              UZF ET =  1505487064.4688                UZF ET =          68.2344
        UZF RECHARGE =   263949910.6927          UZF RECHARGE =          11.7327

            IN - OUT =  -444055836.1898              IN - OUT =         -37.5921

          STORAGE:                                 STORAGE:
          --------                                 --------
      STORAGE CHANGE =  -443828799.9881        STORAGE CHANGE =         -37.5920

 PERCENT DISCREPANCY IS DIFFERENCE BETWEEN IN-OUT MINUS CHANGE IN STORAGE
 DIVIDED BY THE AVERAGE OF IN AND OUT TIMES 100

 PERCENT DISCREPANCY =          -0.00     PERCENT DISCREPANCY =          -0.00






1
  VOLUMETRIC BUDGET FOR ENTIRE MODEL AT END OF TIME STEP   10, STRESS PERIOD   8
  ------------------------------------------------------------------------------

     CUMULATIVE VOLUMES      L**3       RATES FOR THIS TIME STEP      L**3/T
     ------------------                 ------------------------

           IN:                                      IN:
           ---                                      ---
             STORAGE     =    69055240.0000               STORAGE     =           2.2914
       CONSTANT HEAD     =           0.0000         CONSTANT HEAD     =           0.0000
               WELLS     =           0.0000                 WELLS     =           0.0000
     HEAD DEP BOUNDS     =     4075160.7500       HEAD DEP BOUNDS     =           0.2067
      STREAM LEAKAGE     =   778481984.0000        STREAM LEAKAGE     =          39.3646
        UZF RECHARGE     =   263949920.0000          UZF RECHARGE     =          11.7327
               GW ET     =           0.0000                 GW ET     =           0.0000
     SURFACE LEAKAGE     =           0.0000       SURFACE LEAKAGE     =           0.0000

                TOTAL IN =  1115562368.0000                  TOTAL IN =          53.5955

          OUT:                                     OUT:
          ----                                     ----
             STORAGE     =   285251616.0000               STORAGE     =          25.5357
       CONSTANT HEAD     =           0.0000         CONSTANT HEAD     =           0.0000
               WELLS     =   289079936.0000                 WELLS     =           0.0000
     HEAD DEP BOUNDS     =     5582912.5000       HEAD DEP BOUNDS     =           0.2833
      STREAM LEAKAGE     =   160852624.0000        STREAM LEAKAGE     =           7.7087
        UZF RECHARGE     =           0.0000          UZF RECHARGE     =           0.0000
               GW ET     =   374788064.0000                 GW ET     =          20.0675
     SURFACE LEAKAGE     =           0.0000       SURFACE LEAKAGE     =           0.0000

               TOTAL OUT =  1115555072.0000                 TOTAL OUT =          53.5952

                IN - OUT =        7296.0000                  IN - OUT =       3.0518E-04

     PERCENT DISCREPANCY =           0.00         PERCENT DISCREPANCY =           0.00






         TIME SUMMARY AT END OF TIME STEP   10 IN STRESS PERIOD    8
                    SECONDS     MINUTES      HOURS       DAYS        YEARS
                    -----------------------------------------------------------
   TIME STEP LENGTH 1.95033E+05  3250.6      54.176      2.2573     6.18023E-03
 STRESS PERIOD TIME 1.31823E+06  21971.      366.18      15.257     4.17723E-02
         TOTAL TIME 1.97142E+07 3.28570E+05  5476.2      228.17     0.62471    
1
 
 SOLVING FOR HEAD 
                                                   Max.-Head-Change                         Max.-Flux-Residual
  Residual-Control   Outer-Iter.   Inner-Iter.     Column Row Layer    Maximum-Head-Change  Column Row Layer    Maximum-Flux-Residual          L2-NORM 
          0                 1           2             4    7     1       0.8701139358E-01       4    7    1         0.1849378798E+01      0.5645752211E+01
          0                 2           2             6    2     1       0.7960087136E-02       4    7    1         0.1585466033E+00      0.4976470110E+00
          0                 3           2             6    2     1       0.2169544968E-02       6    2    1         0.2310327762E-01      0.5344336583E-01
          0                 4           1             6    2     1       0.5915488926E-03       6    2    1         0.6299047569E-02      0.9757181710E-02
          0                 5           1             7    2     1       0.1616322071E-03       7    2    1         0.1724819941E-02      0.2476361991E-02
          0                 6           1             7    2     1       0.4446208485E-04       7    2    1         0.4744868708E-03      0.6717056535E-03

    ------------------------------------------------
       NWT REQUIRED            6 OUTER ITERATIONS 
       AND A TOTAL OF          9 INNER ITERATIONS.
    ------------------------------------------------

 NO OUTPUT CONTROL FOR STRESS PERIOD    8   TIME STEP   11
 
 SOLVING FOR HEAD 
                                                   Max.-Head-Change                         Max.-Flux-Residual
  Residual-Control   Outer-Iter.   Inner-Iter.     Column Row Layer    Maximum-Head-Change  Column Row Layer    Maximum-Flux-Residual          L2-NORM 
          0                 1           2             4    7     1       0.9531819519E-01       4    7    1         0.1842346994E+01      0.5599288696E+01
          0                 2           2             4    7     1       0.8161044758E-02       4    7    1         0.1578340009E+00      0.4909404710E+00
          0                 3           2             6    2     1       0.2155446298E-02       6    2    1         0.2087571303E-01      0.5153445369E-01
          0                 4           1             6    2     1       0.5796939150E-03       6    2    1         0.5614048634E-02      0.9141881991E-02
          0                 5           1             7    2     1       0.1560517670E-03       7    2    1         0.1514869377E-02      0.2282959671E-02
          0                 6           1             7    2     1       0.4238560745E-04       7    2    1         0.4114750797E-03      0.6102514485E-03

    ------------------------------------------------
       NWT REQUIRED            6 OUTER ITERATIONS 
       AND A TOTAL OF          9 INNER ITERATIONS.
    ------------------------------------------------

 NO OUTPUT CONTROL FOR STRESS PERIOD    8   TIME STEP   12
 
 SOLVING FOR HEAD 
                                                   Max.-Head-Change                         Max.-Flux-Residual
  Residual-Control   Outer-Iter.   Inner-Iter.     Column Row Layer    Maximum-Head-Change  Column Row Layer    Maximum-Flux-Residual          L2-NORM 
          0                 1           2             4    7     1       0.1043752950E+00       4    7    1         0.1834635483E+01      0.5554553620E+01
          0                 2           2             4    7     1       0.8929886113E-02       4    7    1         0.1570556144E+00      0.4845531765E+00
          0                 3           2             6    2     1       0.2124121677E-02       6    2    1         0.1870837697E-01      0.4918546397E-01
          0                 4           1             6    2     1       0.5634670574E-03       6    2    1         0.4962388557E-02      0.8205043619E-02
          0                 5           1             6    2     1       0.1495100369E-03       6    2    1         0.1316415825E-02      0.1989040118E-02
          0                 6           1             6    2     1       0.3967742508E-04       7    2    1         0.3496820262E-03      0.5233166891E-03

    ------------------------------------------------
       NWT REQUIRED            6 OUTER ITERATIONS 
       AND A TOTAL OF          9 INNER ITERATIONS.
    ------------------------------------------------

 NO OUTPUT CONTROL FOR STRESS PERIOD    8   TIME STEP   13
 
 SOLVING FOR HEAD 
                                                   Max.-Head-Change                         Max.-Flux-Residual
  Residual-Control   Outer-Iter.   Inner-Iter.     Column Row Layer    Maximum-Head-Change  Column Row Layer    Maximum-Flux-Residual          L2-NORM 
          0                 1           2             4    7     1       0.1142419662E+00       4    7    1         0.1826205904E+01      0.5499851921E+01
          0                 2           2             4    7     1       0.9765717778E-02       4    7    1         0.1562045051E+00      0.4758224793E+00
          0                 3           2             6    2     1       0.2059267451E-02       6    2    1         0.1648839549E-01      0.4652452358E-01
          0                 4           1             6    2     1       0.5380684170E-03       6    2    1         0.4309052279E-02      0.7229266903E-02
          0                 5           1             6    2     1       0.1405985296E-03       6    2    1         0.1125839771E-02      0.1695312105E-02
          0                 6           1             6    2     1       0.3674088833E-04       6    2    1         0.2941971397E-03      0.4393108600E-03

    ------------------------------------------------
       NWT REQUIRED            6 OUTER ITERATIONS 
       AND A TOTAL OF          9 INNER ITERATIONS.
    ------------------------------------------------

 NO OUTPUT CONTROL FOR STRESS PERIOD    8   TIME STEP   14
 
 SOLVING FOR HEAD 
                                                   Max.-Head-Change                         Max.-Flux-Residual
  Residual-Control   Outer-Iter.   Inner-Iter.     Column Row Layer    Maximum-Head-Change  Column Row Layer    Maximum-Flux-Residual          L2-NORM 
          0                 1           2             4    7     1       0.1249787361E+00       4    7    1         0.1816983221E+01      0.5452755199E+01
          0                 2           2             4    7     1       0.1067352809E-01       4    7    1         0.1552720977E+00      0.4706483142E+00
          0                 3           2             6    2     1       0.1988975897E-02       6    2    1         0.1446574517E-01      0.4548266574E-01
          0                 4           1             6    2     1       0.5124453803E-03       6    2    1         0.3728207174E-02      0.6797872621E-02
          0                 5           1             6    2     1       0.1320143057E-03       6    2    1         0.9604248980E-03      0.1541915607E-02
          0                 6           1             6    2     1       0.3400664714E-04       6    2    1         0.2474233897E-03      0.3907062248E-03

    ------------------------------------------------
       NWT REQUIRED            6 OUTER ITERATIONS 
       AND A TOTAL OF          9 INNER ITERATIONS.
    ------------------------------------------------

 OUTPUT CONTROL FOR STRESS PERIOD    8   TIME STEP   15
    PRINT BUDGET
    PRINT HEAD FOR ALL LAYERS
    SAVE HEAD FOR ALL LAYERS
    SAVE BUDGET

  HEAD DEP BOUNDS   PERIOD    8   STEP    15
 BOUNDARY      1   LAYER   1   ROW    13   COL     1   RATE   -0.282806    
 BOUNDARY      2   LAYER   1   ROW    14   COL     9   RATE    0.206700    



 STREAM LISTING     PERIOD      8   STEP       15

 LAYER ROW COL. STREAM  RCH.  FLOW INTO     FLOW TO   FLOW OUT OF   OVRLND.     DIRECT     STREAM       STREAM     STREAM     STREAM   STREAMBED  STREAMBED
                SEG.NO.  NO.  STRM. RCH.    AQUIFER    STRM. RCH.    RUNOFF     PRECIP       ET          HEAD       DEPTH      WIDTH   CONDCTNC.   GRADIENT

   1    1    1     1     1    2.5000E+01  1.1712E+00   2.3829E+01  0.000E+00  0.000E+00  0.000E+00  1.09422E+03  1.171E+00  1.295E+01  5.825E-01  6.702E-01
   1    2    2     1     2    2.3829E+01  2.6564E+00   2.1172E+01  0.000E+00  0.000E+00  0.000E+00  1.08920E+03  1.142E+00  1.255E+01  8.785E-01  1.008E+00
   1    3    3     1     3    2.1172E+01  2.9272E+00   1.8245E+01  0.000E+00  0.000E+00  0.000E+00  1.08351E+03  1.095E+00  1.191E+01  7.148E-01  1.365E+00
   1    3    4     1     4    1.8245E+01  2.4876E+00   1.5758E+01  0.000E+00  0.000E+00  0.000E+00  1.07846E+03  1.049E+00  1.107E+01  6.143E-01  1.350E+00
   1    4    5     2     1    5.7577E+00  2.6731E+00   3.0846E+00  0.000E+00  0.000E+00  0.000E+00  1.07236E+03  4.270E-01  1.200E+01  7.800E-01  1.142E+00
   1    5    6     2     2    3.0846E+00  1.9640E+00   1.1205E+00  0.000E+00  0.000E+00  0.000E+00  1.06678E+03  2.734E-01  1.200E+01  6.000E-01  1.091E+00
   1    6    6     2     3    1.1205E+00  1.1205E+00   0.0000E+00  0.000E+00  0.000E+00  0.000E+00  1.06183E+03  4.217E-02  1.200E+01  6.000E-01  1.014E+00
   1    7    6     2     4    0.0000E+00  0.0000E+00   0.0000E+00  0.000E+00  0.000E+00  0.000E+00  1.05708E+03  0.000E+00  1.200E+01  6.000E-01  1.000E+00
   1    8    6     2     5    0.0000E+00  0.0000E+00   0.0000E+00  0.000E+00  0.000E+00  0.000E+00  1.05236E+03  0.000E+00  1.200E+01  6.000E-01  1.000E+00
   1    3    5     3     1    1.0000E+01  1.5580E+00   8.4420E+00  0.000E+00  0.000E+00  0.000E+00  1.07555E+03  1.909E+00  9.636E+00  7.227E-01  1.078E+00
   1    3    6     3     2    8.4420E+00  1.3684E+00   7.0735E+00  0.000E+00  0.000E+00  0.000E+00  1.07264E+03  1.727E+00  8.909E+00  6.682E-01  1.024E+00
   1    3    7     3     3    7.0735E+00  9.8417E-01   6.0893E+00  0.000E+00  0.000E+00  0.000E+00  1.06987E+03  1.555E+00  8.218E+00  5.547E-01  8.871E-01
   1    4    8     3     4    6.0893E+00  1.5452E+00   4.5441E+00  0.000E+00  0.000E+00  0.000E+00  1.06682E+03  1.364E+00  7.455E+00  6.709E-01  1.152E+00
   1    5    8     3     5    4.5441E+00  1.4973E+00   3.0468E+00  0.000E+00  0.000E+00  0.000E+00  1.06362E+03  1.164E+00  6.655E+00  4.991E-01  1.500E+00
   1    6    8     3     6    3.0468E+00  5.5980E-01   2.4870E+00  0.000E+00  0.000E+00  0.000E+00  1.06158E+03  1.036E+00  6.145E+00  1.844E-01  1.518E+00
   1    5   10     4     1    1.0000E+01  9.0525E-01   9.0947E+00  0.000E+00  0.000E+00  0.000E+00  1.07835E+03  6.210E-01  1.000E+01  2.500E-01  1.207E+00
   1    5    9     4     2    9.0947E+00  1.7835E+00   7.3113E+00  0.000E+00  0.000E+00  0.000E+00  1.07148E+03  5.670E-01  1.000E+01  5.000E-01  1.189E+00
   1    6    8     4     3    7.3113E+00  1.2257E+00   6.0855E+00  0.000E+00  0.000E+00  0.000E+00  1.06368E+03  5.021E-01  1.000E+01  3.500E-01  1.167E+00
   1    6    8     5     1    8.5725E+00  2.8804E-01   8.2845E+00  0.000E+00  0.000E+00  0.000E+00  1.05863E+03  6.326E-01  1.365E+01  5.461E-01  1.758E-01
   1    7    7     5     2    8.2845E+00  1.2721E+00   7.0124E+00  0.000E+00  0.000E+00  0.000E+00  1.05411E+03  6.115E-01  1.288E+01  6.440E-01  6.584E-01
   1    8    7     5     3    7.0124E+00  9.5264E-01   6.0598E+00  0.000E+00  0.000E+00  0.000E+00  1.04983E+03  5.787E-01  1.172E+01  4.102E-01  7.740E-01
   1    8    6     5     4    6.0598E+00  9.1496E-01   5.1448E+00  0.000E+00  0.000E+00  0.000E+00  1.04680E+03  5.483E-01  1.069E+01  2.671E-01  1.142E+00
   1    9    6     6     1    5.1448E+00  1.8893E+00   3.2555E+00  0.000E+00  0.000E+00  0.000E+00  1.04315E+03  4.187E-01  1.200E+01  6.000E-01  1.050E+00
   1   10    7     6     2    3.2555E+00  1.1704E+00   2.0852E+00  0.000E+00  0.000E+00  0.000E+00  1.03850E+03  3.191E-01  1.200E+01  6.000E-01  6.502E-01
   1   11    7     6     3    2.0852E+00  8.4667E-01   1.2385E+00  0.000E+00  0.000E+00  0.000E+00  1.03388E+03  2.401E-01  1.200E+01  6.000E-01  4.704E-01
   1   12    7     6     4    1.2385E+00  4.3818E-01   8.0031E-01  0.000E+00  0.000E+00  0.000E+00  1.02927E+03  1.791E-01  1.200E+01  6.000E-01  2.434E-01
   1   13    7     6     5    8.0031E-01 -7.9291E-01   1.5932E+00  0.000E+00  0.000E+00  0.000E+00  1.02611E+03  1.971E-01  1.200E+01  2.400E-01 -1.101E+00
   1   14    9     7     1    1.5000E+02  1.7161E+00   1.4828E+02  0.000E+00  0.000E+00  0.000E+00  1.03987E+03  2.287E+00  5.529E+01  5.593E+00  1.023E-01
   1   13    8     7     2    1.4828E+02  1.7018E+00   1.4658E+02  0.000E+00  0.000E+00  0.000E+00  1.03478E+03  2.278E+00  5.525E+01  6.147E+00  9.229E-02
   1   13    7     7     3    1.4658E+02  1.5537E+00   1.4503E+02  0.000E+00  0.000E+00  0.000E+00  1.02969E+03  2.269E+00  5.521E+01  5.584E+00  9.275E-02
   1   13    6     8     1    1.4662E+02  3.7839E-01   1.4624E+02  0.000E+00  0.000E+00  0.000E+00  1.02467E+03  2.792E+00  4.048E+01  4.125E+00  3.058E-02
   1   13    5     8     2    1.4624E+02 -2.7071E-01   1.4651E+02  0.000E+00  0.000E+00  0.000E+00  1.01842E+03  2.791E+00  4.047E+01  4.124E+00 -2.188E-02
   1   13    4     8     3    1.4651E+02 -1.0781E+00   1.4759E+02  0.000E+00  0.000E+00  0.000E+00  1.01217E+03  2.796E+00  4.054E+01  4.131E+00 -8.698E-02
   1   13    3     8     4    1.4759E+02 -1.7340E+00   1.4933E+02  0.000E+00  0.000E+00  0.000E+00  1.00593E+03  2.806E+00  4.069E+01  4.146E+00 -1.394E-01
   1   13    2     8     5    1.4933E+02 -1.9131E+00   1.5124E+02  0.000E+00  0.000E+00  0.000E+00  9.99694E+02  2.819E+00  4.087E+01  4.165E+00 -1.531E-01
   1   13    1     8     6    1.5124E+02 -1.8461E+00   1.5309E+02  0.000E+00  0.000E+00  0.000E+00  9.94707E+02  2.832E+00  4.106E+01  2.511E+00 -2.451E-01



 UBDSV3 SAVING "           GW ET" ON UNIT  61 AT TIME STEP 15, STRESS PERIOD 8
 UBDSV3 SAVING "    UZF RECHARGE" ON UNIT  61 AT TIME STEP 15, STRESS PERIOD 8
 UBDSV3 SAVING " SURFACE LEAKAGE" ON UNIT  61 AT TIME STEP 15, STRESS PERIOD 8
 UBDSV3 SAVING "       HORT+DUNN" ON UNIT  61 AT TIME STEP 15, STRESS PERIOD 8
 UBDSV3 SAVING "  STORAGE CHANGE" ON UNIT  61 AT TIME STEP 15, STRESS PERIOD 8


UNSATURATED ZONE PACKAGE VOLUMETRIC BUDGET FOR  TIME STEP    15 STRESS PERIOD    8
  ------------------------------------------------------------------------------



     CUMULATIVE VOLUMES      L**3       RATES FOR THIS TIME STEP      L**3/T
     ------------------                 ------------------------

           IN:                                      IN:
           ---                                      ---
        INFILTRATION =  1380882489.5186          INFILTRATION =          42.3750

          OUT:                                     OUT:
          ----                                     ----
              UZF ET =  1593489700.1191                UZF ET =          66.6197
        UZF RECHARGE =   279786407.4898          UZF RECHARGE =          12.5457

            IN - OUT =  -492393618.0904              IN - OUT =         -36.7904

          STORAGE:                                 STORAGE:
          --------                                 --------
      STORAGE CHANGE =  -492162997.1812        STORAGE CHANGE =         -36.7860

 PERCENT DISCREPANCY IS DIFFERENCE BETWEEN IN-OUT MINUS CHANGE IN STORAGE
 DIVIDED BY THE AVERAGE OF IN AND OUT TIMES 100

 PERCENT DISCREPANCY =          -0.00     PERCENT DISCREPANCY =          -0.01






1
              HEAD IN LAYER 1 AT END OF TIME STEP 15 IN STRESS PERIOD 8
  ---------------------------------------------------------------------------

           1       2       3       4       5       6       7       8       9      10
 ...................................................................................
   1  1092.21 1087.71 6999.00 6999.00 6999.00 6999.00 6999.00 6999.00 6999.00 6999.00
   2  1087.66 1086.18 1078.33 6999.00 6999.00 1071.55 1071.17 1068.90 6999.00 6999.00
   3  6999.00 1074.88 1078.83 1074.24 1073.39 1070.59 1068.10 1066.07 6999.00 6999.00
   4  1065.93 1065.95 1064.92 1063.64 1066.29 1061.47 1059.89 1064.52 1062.22 6999.00
   5  1062.57 1059.36 1055.70 1053.40 1055.70 1060.48 1057.21 1060.62 1064.42 1065.61
   6  1058.77 1054.13 1049.64 1039.66 1042.92 1053.22 1054.02 1058.11 1057.78 1063.24
   7  1055.90 1049.08 1044.19 1031.12 1034.94 1045.81 1052.14 1052.65 1053.42 6999.00
   8  6999.00 1043.12 1039.47 1027.22 1030.79 1043.37 1047.51 1047.46 1049.84 6999.00
   9  6999.00 1037.19 1034.65 1023.41 1027.41 1040.00 1040.16 1041.59 1045.52 6999.00
  10  6999.00 1031.33 1030.11 1021.36 1023.96 1032.30 1036.55 1037.29 1041.81 1046.50
  11  6999.00 1023.82 1024.33 1023.99 1025.65 1028.99 1032.47 1033.84 1037.88 6999.00
  12  1006.74 1013.41 1015.92 1019.51 1022.35 1025.48 1028.54 1030.51 1035.27 6999.00
  13   995.44 1000.15 1006.35 1012.43 1018.48 1024.57 1029.41 1034.50 1035.86 6999.00
  14  6999.00 1012.35 1017.11 1021.68 1025.56 1028.60 1031.15 1034.64 1039.56 6999.00
  15  6999.00 6999.00 1026.36 1028.56 1031.29 1032.99 6999.00 6999.00 6999.00 6999.00
1
              HEAD IN LAYER 2 AT END OF TIME STEP 15 IN STRESS PERIOD 8
  ---------------------------------------------------------------------------

           1       2       3       4       5       6       7       8       9      10
 ...................................................................................
   1  1091.03 1087.14 6999.00 6999.00 6999.00 6999.00 6999.00 6999.00 6999.00 6999.00
   2  1087.42 1080.78 1075.44 6999.00 6999.00 1070.75 1070.38 1068.68 6999.00 6999.00
   3  6999.00 1072.73 1068.17 1064.42 1063.76 1064.45 1065.09 1065.57 6999.00 6999.00
   4  1065.24 1065.21 1062.36 1058.99 1057.58 1057.12 1058.45 1061.71 1061.83 6999.00
   5  1061.86 1058.66 1055.60 1053.61 1053.35 1053.68 1054.06 1055.95 1059.93 1063.85
   6  1058.11 1053.59 1050.03 1048.50 1048.76 1050.01 1051.33 1053.24 1056.90 1062.91
   7  1055.21 1048.62 1044.95 1043.69 1044.35 1045.97 1047.92 1050.43 1053.30 6999.00
   8  6999.00 1042.81 1040.16 1039.28 1040.11 1041.80 1043.67 1047.22 1049.55 6999.00
   9  6999.00 1036.80 1035.25 1034.95 1035.94 1037.65 1039.12 1041.48 1045.20 6999.00
  10  6999.00 1030.94 1030.58 1031.11 1032.31 1033.96 1035.26 1037.20 1041.40 1046.50
  11  6999.00 1023.97 1025.10 1027.61 1029.27 1031.03 1032.50 1034.07 1037.59 6999.00
  12  1007.02 1014.74 1019.82 1023.69 1026.38 1028.66 1030.36 1031.78 1035.21 6999.00
  13  1000.29 1007.75 1015.74 1021.04 1024.58 1027.49 1030.02 1032.66 1035.43 6999.00
  14  6999.00 1012.62 1017.48 1021.98 1025.63 1028.56 1030.97 1034.25 1036.91 6999.00
  15  6999.00 6999.00 1026.36 1028.56 1030.81 1032.52 6999.00 6999.00 6999.00 6999.00

 HEAD WILL BE SAVED ON UNIT   58 AT END OF TIME STEP   15, STRESS PERIOD    8
1
  VOLUMETRIC BUDGET FOR ENTIRE MODEL AT END OF TIME STEP   15, STRESS PERIOD   8
  ------------------------------------------------------------------------------

     CUMULATIVE VOLUMES      L**3       RATES FOR THIS TIME STEP      L**3/T
     ------------------                 ------------------------

           IN:                                      IN:
           ---                                      ---
             STORAGE     =    70960216.0000               STORAGE     =           0.9689
       CONSTANT HEAD     =           0.0000         CONSTANT HEAD     =           0.0000
               WELLS     =           0.0000                 WELLS     =           0.0000
     HEAD DEP BOUNDS     =     4345893.5000       HEAD DEP BOUNDS     =           0.2067
      STREAM LEAKAGE     =   830228480.0000        STREAM LEAKAGE     =          39.5497
        UZF RECHARGE     =   279786432.0000          UZF RECHARGE     =          12.5457
               GW ET     =           0.0000                 GW ET     =           0.0000
     SURFACE LEAKAGE     =           0.0000       SURFACE LEAKAGE     =           0.0000

                TOTAL IN =  1185320960.0000                  TOTAL IN =          53.2710

          OUT:                                     OUT:
          ----                                     ----
             STORAGE     =   318388224.0000               STORAGE     =          25.3259
       CONSTANT HEAD     =           0.0000         CONSTANT HEAD     =           0.0000
               WELLS     =   289079936.0000                 WELLS     =           0.0000
     HEAD DEP BOUNDS     =     5953565.5000       HEAD DEP BOUNDS     =           0.2828
      STREAM LEAKAGE     =   170864224.0000        STREAM LEAKAGE     =           7.6348
        UZF RECHARGE     =           0.0000          UZF RECHARGE     =           0.0000
               GW ET     =   401027616.0000                 GW ET     =          20.0272
     SURFACE LEAKAGE     =           0.0000       SURFACE LEAKAGE     =           0.0000

               TOTAL OUT =  1185313536.0000                 TOTAL OUT =          53.2707

                IN - OUT =        7424.0000                  IN - OUT =       2.3651E-04

     PERCENT DISCREPANCY =           0.00         PERCENT DISCREPANCY =           0.00






         TIME SUMMARY AT END OF TIME STEP   15 IN STRESS PERIOD    8
                    SECONDS     MINUTES      HOURS       DAYS        YEARS
                    -----------------------------------------------------------
   TIME STEP LENGTH 3.14103E+05  5235.0      87.251      3.6354     9.95332E-03
 STRESS PERIOD TIME 2.62800E+06  43800.      730.00      30.417     8.32763E-02
         TOTAL TIME 2.10240E+07 3.50400E+05  5840.0      243.33     0.66621    
1
1
                            STRESS PERIOD NO.    9, LENGTH =   2628000.    
                            -----------------------------------------------

                              NUMBER OF TIME STEPS =    15

                               MULTIPLIER FOR DELT =     1.100

                            INITIAL TIME STEP SIZE =   82713.07    

 WELL NO.  LAYER   ROW   COL   STRESS RATE         
 --------------------------------------------------
      1      1      6      4      -1.000    
      2      1      6      5      -1.000    
      3      1      7      4      -1.000    
      4      1      7      5      -1.000    
      5      1      8      4      -1.000    
      6      1      8      5      -1.000    
      7      1      9      4      -1.000    
      8      1      9      5      -1.000    
      9      1     10      4      -1.000    
     10      1     10      5      -1.000    

     10 WELLS

 REUSING NON-PARAMETER GHB CELLS FROM LAST STRESS PERIOD

      2 GHB CELLS

 REUSING STREAM SEGMENT DATA FROM LAST STRESS PERIOD



            AREAL INFILTRATION RATE
 READING ON UNIT   19 WITH FORMAT: (10F4.0)            

            1           2           3           4           5           6           7           8           9          10
 ........................................................................................................................
   1   3.0000E-09  6.0000E-09   0.000       0.000       0.000       0.000       0.000       0.000       0.000       0.000    
   2   6.0000E-09  3.0000E-09  6.0000E-09   0.000       0.000      2.4000E-08  2.4000E-08  1.5000E-08   0.000       0.000    
   3    0.000      1.5000E-08  3.0000E-09  3.0000E-09  2.4000E-08  2.4000E-08  1.5000E-08  1.5000E-08   0.000       0.000    
   4   2.4000E-08  1.5000E-08  3.0000E-09  3.0000E-09  3.0000E-09  3.0000E-09  3.0000E-09  3.0000E-09  6.0000E-09   0.000    
   5   2.4000E-08  1.5000E-08  3.0000E-09  3.0000E-09  3.0000E-09  3.0000E-09  3.0000E-09  3.0000E-09  3.0000E-09  3.0000E-09
   6   2.4000E-08  1.5000E-08  1.5000E-08  6.0000E-09  6.0000E-09  3.0000E-09  3.0000E-09  3.0000E-09  3.0000E-09  1.5000E-08
   7   2.4000E-08  1.5000E-08  1.5000E-08  6.0000E-09  6.0000E-09  3.0000E-09  3.0000E-09  6.0000E-09  6.0000E-09   0.000    
   8    0.000      1.5000E-08  1.5000E-08  6.0000E-09  6.0000E-09  3.0000E-09  3.0000E-09  6.0000E-09  1.5000E-08   0.000    
   9    0.000      1.5000E-08  1.5000E-08  6.0000E-09  6.0000E-09  3.0000E-09  3.0000E-09  6.0000E-09  1.5000E-08   0.000    
  10    0.000      1.5000E-08  1.5000E-08  6.0000E-09  6.0000E-09  3.0000E-09  3.0000E-09  6.0000E-09  1.5000E-08  2.4000E-08
  11    0.000      3.0000E-09  3.0000E-09  3.0000E-09  3.0000E-09  3.0000E-09  3.0000E-09  6.0000E-09  1.5000E-08   0.000    
  12   3.0000E-09  3.0000E-09  3.0000E-09  3.0000E-09  3.0000E-09  3.0000E-09  3.0000E-09  3.0000E-09  6.0000E-09   0.000    
  13   3.0000E-09  3.0000E-09  6.0000E-09  6.0000E-09  6.0000E-09  6.0000E-09  6.0000E-09  3.0000E-09  3.0000E-09   0.000    
  14    0.000      6.0000E-09  1.5000E-08  1.5000E-08  1.5000E-08  1.5000E-08  1.5000E-08  6.0000E-09  3.0000E-09   0.000    
  15    0.000       0.000      2.4000E-08  2.4000E-08  2.4000E-08  2.4000E-08   0.000       0.000       0.000       0.000    

USING ET RATE FROM PREVIOUS STRESS PERIOD. CURRENT PERIOD IS:       9

 USING ET EXTINCTION DEPTH FROM PREVIOUS STRESS PERIOD. CURRENT PERIOD IS:       9

 USING EXTINCTION WATER CONTENT FROM PREVIOUS STRESS PERIOD. CURRENT PERIOD IS:       9
 
 SOLVING FOR HEAD 
                                                   Max.-Head-Change                         Max.-Flux-Residual
  Residual-Control   Outer-Iter.   Inner-Iter.     Column Row Layer    Maximum-Head-Change  Column Row Layer    Maximum-Flux-Residual          L2-NORM 
          0                 1           2             4    7     1       0.1466772181E-01       4    7    1         0.8068887216E+00      0.2312438637E+01
          0                 2           2             6    2     1       0.1849317844E-02       4    7    1         0.6949510281E-01      0.2148265107E+00
          0                 3           1             6    2     1       0.4707183099E-03       6    2    1         0.1295718275E-01      0.2798413677E-01
          0                 4           1             7    2     1       0.1204957988E-03       7    2    1         0.3321817011E-02      0.6013689512E-02
          0                 5           1             7    2     1       0.3113555119E-04       7    2    1         0.8583246948E-03      0.1534836935E-02

    ------------------------------------------------
       NWT REQUIRED            5 OUTER ITERATIONS 
       AND A TOTAL OF          7 INNER ITERATIONS.
    ------------------------------------------------

 NO OUTPUT CONTROL FOR STRESS PERIOD    9   TIME STEP    1
 
 SOLVING FOR HEAD 
                                                   Max.-Head-Change                         Max.-Flux-Residual
  Residual-Control   Outer-Iter.   Inner-Iter.     Column Row Layer    Maximum-Head-Change  Column Row Layer    Maximum-Flux-Residual          L2-NORM 
          0                 1           2             4    7     1       0.1610944088E-01       4    7    1         0.8058563566E+00      0.2305670687E+01
          0                 2           2             6    2     1       0.2030224186E-02       4    7    1         0.6936509221E-01      0.2126014682E+00
          0                 3           1             6    2     1       0.5165822294E-03       6    2    1         0.1293055301E-01      0.2696840951E-01
          0                 4           1             6    2     1       0.1314450960E-03       6    2    1         0.3290999318E-02      0.5666139641E-02
          0                 5           1             6    2     1       0.3344742711E-04       6    2    1         0.8373194255E-03      0.1434468894E-02

    ------------------------------------------------
       NWT REQUIRED            5 OUTER ITERATIONS 
       AND A TOTAL OF          7 INNER ITERATIONS.
    ------------------------------------------------

 NO OUTPUT CONTROL FOR STRESS PERIOD    9   TIME STEP    2
 
 SOLVING FOR HEAD 
                                                   Max.-Head-Change                         Max.-Flux-Residual
  Residual-Control   Outer-Iter.   Inner-Iter.     Column Row Layer    Maximum-Head-Change  Column Row Layer    Maximum-Flux-Residual          L2-NORM 
          0                 1           2             4    7     1       0.1768890536E-01       4    7    1         0.8045829263E+00      0.2297893658E+01
          0                 2           2             6    2     1       0.2058501930E-02       4    7    1         0.6922600992E-01      0.2104615525E+00
          0                 3           1             6    2     1       0.5148763428E-03       6    2    1         0.1171625878E-01      0.2602843924E-01
          0                 4           1             6    2     1       0.1287897786E-03       6    2    1         0.2931349509E-02      0.5342116344E-02
          0                 5           1             6    2     1       0.3221752681E-04       6    2    1         0.7331722550E-03      0.1340399464E-02

    ------------------------------------------------
       NWT REQUIRED            5 OUTER ITERATIONS 
       AND A TOTAL OF          7 INNER ITERATIONS.
    ------------------------------------------------

 NO OUTPUT CONTROL FOR STRESS PERIOD    9   TIME STEP    3
 
 SOLVING FOR HEAD 
                                                   Max.-Head-Change                         Max.-Flux-Residual
  Residual-Control   Outer-Iter.   Inner-Iter.     Column Row Layer    Maximum-Head-Change  Column Row Layer    Maximum-Flux-Residual          L2-NORM 
          0                 1           2             4    7     1       0.1941920090E-01       4    7    1         0.8031297658E+00      0.2290085686E+01
          0                 2           2             6    2     1       0.2162785122E-02       4    7    1         0.6907437163E-01      0.2088353324E+00
          0                 3           1             6    2     1       0.5409011164E-03       6    2    1         0.1119042529E-01      0.2544695041E-01
          0                 4           1             6    2     1       0.1352850388E-03       6    2    1         0.2799469361E-02      0.5154958853E-02
          0                 5           1             7    2     1       0.3397433804E-04       7    2    1         0.7042107169E-03      0.1288343434E-02

    ------------------------------------------------
       NWT REQUIRED            5 OUTER ITERATIONS 
       AND A TOTAL OF          7 INNER ITERATIONS.
    ------------------------------------------------

 NO OUTPUT CONTROL FOR STRESS PERIOD    9   TIME STEP    4
 
 SOLVING FOR HEAD 
                                                   Max.-Head-Change                         Max.-Flux-Residual
  Residual-Control   Outer-Iter.   Inner-Iter.     Column Row Layer    Maximum-Head-Change  Column Row Layer    Maximum-Flux-Residual          L2-NORM 
          0                 1           2             4    7     1       0.2131425787E-01       4    7    1         0.8015107994E+00      0.2280658418E+01
          0                 2           2             6    2     1       0.2273115827E-02       4    7    1         0.6890847217E-01      0.2061687045E+00
          0                 3           1             6    2     1       0.5610759676E-03       6    2    1         0.1055553127E-01      0.2419266273E-01
          0                 4           1             6    2     1       0.1384999947E-03       6    2    1         0.2606189795E-02      0.4709047881E-02
          0                 5           1             6    2     1       0.3419114030E-04       6    2    1         0.6432717867E-03      0.1158025589E-02

    ------------------------------------------------
       NWT REQUIRED            5 OUTER ITERATIONS 
       AND A TOTAL OF          7 INNER ITERATIONS.
    ------------------------------------------------

 OUTPUT CONTROL FOR STRESS PERIOD    9   TIME STEP    5
    PRINT BUDGET
    SAVE BUDGET

            WELLS   PERIOD    9   STEP   5
 WELL      1   LAYER   1   ROW     6   COL     4   RATE    -1.00000    
 WELL      2   LAYER   1   ROW     6   COL     5   RATE    -1.00000    
 WELL      3   LAYER   1   ROW     7   COL     4   RATE    -1.00000    
 WELL      4   LAYER   1   ROW     7   COL     5   RATE    -1.00000    
 WELL      5   LAYER   1   ROW     8   COL     4   RATE    -1.00000    
 WELL      6   LAYER   1   ROW     8   COL     5   RATE    -1.00000    
 WELL      7   LAYER   1   ROW     9   COL     4   RATE    -1.00000    
 WELL      8   LAYER   1   ROW     9   COL     5   RATE    -1.00000    
 WELL      9   LAYER   1   ROW    10   COL     4   RATE    -1.00000    
 WELL     10   LAYER   1   ROW    10   COL     5   RATE    -1.00000    

  HEAD DEP BOUNDS   PERIOD    9   STEP     5
 BOUNDARY      1   LAYER   1   ROW    13   COL     1   RATE   -0.282663    
 BOUNDARY      2   LAYER   1   ROW    14   COL     9   RATE    0.206697    



 STREAM LISTING     PERIOD      9   STEP        5

 LAYER ROW COL. STREAM  RCH.  FLOW INTO     FLOW TO   FLOW OUT OF   OVRLND.     DIRECT     STREAM       STREAM     STREAM     STREAM   STREAMBED  STREAMBED
                SEG.NO.  NO.  STRM. RCH.    AQUIFER    STRM. RCH.    RUNOFF     PRECIP       ET          HEAD       DEPTH      WIDTH   CONDCTNC.   GRADIENT

   1    1    1     1     1    2.5000E+01  1.1723E+00   2.3828E+01  0.000E+00  0.000E+00  0.000E+00  1.09422E+03  1.171E+00  1.295E+01  5.825E-01  6.708E-01
   1    2    2     1     2    2.3828E+01  2.6567E+00   2.1171E+01  0.000E+00  0.000E+00  0.000E+00  1.08920E+03  1.142E+00  1.255E+01  8.785E-01  1.008E+00
   1    3    3     1     3    2.1171E+01  2.9271E+00   1.8244E+01  0.000E+00  0.000E+00  0.000E+00  1.08351E+03  1.095E+00  1.191E+01  7.147E-01  1.365E+00
   1    3    4     1     4    1.8244E+01  2.4875E+00   1.5756E+01  0.000E+00  0.000E+00  0.000E+00  1.07846E+03  1.049E+00  1.107E+01  6.143E-01  1.350E+00
   1    4    5     2     1    5.7564E+00  2.6730E+00   3.0834E+00  0.000E+00  0.000E+00  0.000E+00  1.07236E+03  4.270E-01  1.200E+01  7.800E-01  1.142E+00
   1    5    6     2     2    3.0834E+00  1.9640E+00   1.1194E+00  0.000E+00  0.000E+00  0.000E+00  1.06678E+03  2.733E-01  1.200E+01  6.000E-01  1.091E+00
   1    6    6     2     3    1.1194E+00  1.1194E+00   0.0000E+00  0.000E+00  0.000E+00  0.000E+00  1.06183E+03  4.214E-02  1.200E+01  6.000E-01  1.014E+00
   1    7    6     2     4    0.0000E+00  0.0000E+00   0.0000E+00  0.000E+00  0.000E+00  0.000E+00  1.05708E+03  0.000E+00  1.200E+01  6.000E-01  1.000E+00
   1    8    6     2     5    0.0000E+00  0.0000E+00   0.0000E+00  0.000E+00  0.000E+00  0.000E+00  1.05236E+03  0.000E+00  1.200E+01  6.000E-01  1.000E+00
   1    3    5     3     1    1.0000E+01  1.5377E+00   8.4623E+00  0.000E+00  0.000E+00  0.000E+00  1.07555E+03  1.909E+00  9.636E+00  7.227E-01  1.064E+00
   1    3    6     3     2    8.4623E+00  1.3446E+00   7.1177E+00  0.000E+00  0.000E+00  0.000E+00  1.07264E+03  1.727E+00  8.909E+00  6.682E-01  1.006E+00
   1    3    7     3     3    7.1177E+00  1.0098E+00   6.1078E+00  0.000E+00  0.000E+00  0.000E+00  1.06987E+03  1.555E+00  8.218E+00  5.547E-01  9.102E-01
   1    4    8     3     4    6.1078E+00  1.5479E+00   4.5599E+00  0.000E+00  0.000E+00  0.000E+00  1.06682E+03  1.364E+00  7.455E+00  6.709E-01  1.154E+00
   1    5    8     3     5    4.5599E+00  1.4963E+00   3.0636E+00  0.000E+00  0.000E+00  0.000E+00  1.06362E+03  1.164E+00  6.655E+00  4.991E-01  1.499E+00
   1    6    8     3     6    3.0636E+00  5.5980E-01   2.5038E+00  0.000E+00  0.000E+00  0.000E+00  1.06158E+03  1.036E+00  6.145E+00  1.844E-01  1.518E+00
   1    5   10     4     1    1.0000E+01  9.0525E-01   9.0947E+00  0.000E+00  0.000E+00  0.000E+00  1.07835E+03  6.210E-01  1.000E+01  2.500E-01  1.207E+00
   1    5    9     4     2    9.0947E+00  1.7835E+00   7.3113E+00  0.000E+00  0.000E+00  0.000E+00  1.07148E+03  5.670E-01  1.000E+01  5.000E-01  1.189E+00
   1    6    8     4     3    7.3113E+00  1.2257E+00   6.0855E+00  0.000E+00  0.000E+00  0.000E+00  1.06368E+03  5.021E-01  1.000E+01  3.500E-01  1.167E+00
   1    6    8     5     1    8.5894E+00  2.8869E-01   8.3007E+00  0.000E+00  0.000E+00  0.000E+00  1.05863E+03  6.330E-01  1.367E+01  5.468E-01  1.760E-01
   1    7    7     5     2    8.3007E+00  1.2774E+00   7.0232E+00  0.000E+00  0.000E+00  0.000E+00  1.05411E+03  6.118E-01  1.289E+01  6.447E-01  6.605E-01
   1    8    7     5     3    7.0232E+00  9.5449E-01   6.0687E+00  0.000E+00  0.000E+00  0.000E+00  1.04983E+03  5.790E-01  1.173E+01  4.106E-01  7.748E-01
   1    8    6     5     4    6.0687E+00  9.1225E-01   5.1565E+00  0.000E+00  0.000E+00  0.000E+00  1.04680E+03  5.487E-01  1.070E+01  2.674E-01  1.137E+00
   1    9    6     6     1    5.1565E+00  1.8839E+00   3.2726E+00  0.000E+00  0.000E+00  0.000E+00  1.04315E+03  4.196E-01  1.200E+01  6.000E-01  1.047E+00
   1   10    7     6     2    3.2726E+00  1.1699E+00   2.1027E+00  0.000E+00  0.000E+00  0.000E+00  1.03850E+03  3.203E-01  1.200E+01  6.000E-01  6.500E-01
   1   11    7     6     3    2.1027E+00  8.4403E-01   1.2587E+00  0.000E+00  0.000E+00  0.000E+00  1.03388E+03  2.417E-01  1.200E+01  6.000E-01  4.689E-01
   1   12    7     6     4    1.2587E+00  4.3500E-01   8.2368E-01  0.000E+00  0.000E+00  0.000E+00  1.02927E+03  1.813E-01  1.200E+01  6.000E-01  2.417E-01
   1   13    7     6     5    8.2368E-01 -7.9169E-01   1.6154E+00  0.000E+00  0.000E+00  0.000E+00  1.02611E+03  1.994E-01  1.200E+01  2.400E-01 -1.100E+00
   1   14    9     7     1    1.5000E+02  1.7157E+00   1.4828E+02  0.000E+00  0.000E+00  0.000E+00  1.03987E+03  2.287E+00  5.529E+01  5.593E+00  1.023E-01
   1   13    8     7     2    1.4828E+02  1.7011E+00   1.4658E+02  0.000E+00  0.000E+00  0.000E+00  1.03478E+03  2.278E+00  5.525E+01  6.147E+00  9.225E-02
   1   13    7     7     3    1.4658E+02  1.5694E+00   1.4501E+02  0.000E+00  0.000E+00  0.000E+00  1.02969E+03  2.269E+00  5.521E+01  5.584E+00  9.369E-02
   1   13    6     8     1    1.4663E+02  3.9737E-01   1.4623E+02  0.000E+00  0.000E+00  0.000E+00  1.02467E+03  2.792E+00  4.048E+01  4.125E+00  3.211E-02
   1   13    5     8     2    1.4623E+02 -2.9383E-01   1.4653E+02  0.000E+00  0.000E+00  0.000E+00  1.01842E+03  2.791E+00  4.047E+01  4.124E+00 -2.375E-02
   1   13    4     8     3    1.4653E+02 -1.1049E+00   1.4763E+02  0.000E+00  0.000E+00  0.000E+00  1.01217E+03  2.796E+00  4.054E+01  4.132E+00 -8.915E-02
   1   13    3     8     4    1.4763E+02 -1.7656E+00   1.4940E+02  0.000E+00  0.000E+00  0.000E+00  1.00593E+03  2.806E+00  4.069E+01  4.147E+00 -1.419E-01
   1   13    2     8     5    1.4940E+02 -1.9100E+00   1.5131E+02  0.000E+00  0.000E+00  0.000E+00  9.99694E+02  2.819E+00  4.088E+01  4.166E+00 -1.528E-01
   1   13    1     8     6    1.5131E+02 -1.8358E+00   1.5314E+02  0.000E+00  0.000E+00  0.000E+00  9.94707E+02  2.832E+00  4.107E+01  2.511E+00 -2.437E-01



 UBDSV3 SAVING "           GW ET" ON UNIT  61 AT TIME STEP 5, STRESS PERIOD 9
 UBDSV3 SAVING "    UZF RECHARGE" ON UNIT  61 AT TIME STEP 5, STRESS PERIOD 9
 UBDSV3 SAVING " SURFACE LEAKAGE" ON UNIT  61 AT TIME STEP 5, STRESS PERIOD 9
 UBDSV3 SAVING "       HORT+DUNN" ON UNIT  61 AT TIME STEP 5, STRESS PERIOD 9
 UBDSV3 SAVING "  STORAGE CHANGE" ON UNIT  61 AT TIME STEP 5, STRESS PERIOD 9


UNSATURATED ZONE PACKAGE VOLUMETRIC BUDGET FOR  TIME STEP     5 STRESS PERIOD    9
  ------------------------------------------------------------------------------



     CUMULATIVE VOLUMES      L**3       RATES FOR THIS TIME STEP      L**3/T
     ------------------                 ------------------------

           IN:                                      IN:
           ---                                      ---
        INFILTRATION =  1393721391.8525          INFILTRATION =          25.4250

          OUT:                                     OUT:
          ----                                     ----
              UZF ET =  1627151136.9521                UZF ET =          66.6659
        UZF RECHARGE =   285095317.3757          UZF RECHARGE =          10.4330

            IN - OUT =  -518525062.4753              IN - OUT =         -51.6738

          STORAGE:                                 STORAGE:
          --------                                 --------
      STORAGE CHANGE =  -518294168.5134        STORAGE CHANGE =         -51.6723

 PERCENT DISCREPANCY IS DIFFERENCE BETWEEN IN-OUT MINUS CHANGE IN STORAGE
 DIVIDED BY THE AVERAGE OF IN AND OUT TIMES 100

 PERCENT DISCREPANCY =          -0.00     PERCENT DISCREPANCY =          -0.00






1
  VOLUMETRIC BUDGET FOR ENTIRE MODEL AT END OF TIME STEP    5, STRESS PERIOD   9
  ------------------------------------------------------------------------------

     CUMULATIVE VOLUMES      L**3       RATES FOR THIS TIME STEP      L**3/T
     ------------------                 ------------------------

           IN:                                      IN:
           ---                                      ---
             STORAGE     =    71405864.0000               STORAGE     =           0.8419
       CONSTANT HEAD     =           0.0000         CONSTANT HEAD     =           0.0000
               WELLS     =           0.0000                 WELLS     =           0.0000
     HEAD DEP BOUNDS     =     4450270.0000       HEAD DEP BOUNDS     =           0.2067
      STREAM LEAKAGE     =   850203456.0000        STREAM LEAKAGE     =          39.5599
        UZF RECHARGE     =   285095296.0000          UZF RECHARGE     =          10.4330
               GW ET     =           0.0000                 GW ET     =           0.0000
     SURFACE LEAKAGE     =           0.0000       SURFACE LEAKAGE     =           0.0000

                TOTAL IN =  1211154944.0000                  TOTAL IN =          51.0415

          OUT:                                     OUT:
          ----                                     ----
             STORAGE     =   325036512.0000               STORAGE     =          13.0197
       CONSTANT HEAD     =           0.0000         CONSTANT HEAD     =           0.0000
               WELLS     =   294129664.0000                 WELLS     =          10.0000
     HEAD DEP BOUNDS     =     6096329.5000       HEAD DEP BOUNDS     =           0.2827
      STREAM LEAKAGE     =   174741120.0000        STREAM LEAKAGE     =           7.7019
        UZF RECHARGE     =           0.0000          UZF RECHARGE     =           0.0000
               GW ET     =   411143392.0000                 GW ET     =          20.0365
     SURFACE LEAKAGE     =           0.0000       SURFACE LEAKAGE     =           0.0000

               TOTAL OUT =  1211147008.0000                 TOTAL OUT =          51.0407

                IN - OUT =        7936.0000                  IN - OUT =       7.0190E-04

     PERCENT DISCREPANCY =           0.00         PERCENT DISCREPANCY =           0.00






         TIME SUMMARY AT END OF TIME STEP    5 IN STRESS PERIOD    9
                    SECONDS     MINUTES      HOURS       DAYS        YEARS
                    -----------------------------------------------------------
   TIME STEP LENGTH 1.21100E+05  2018.3      33.639      1.4016     3.83743E-03
 STRESS PERIOD TIME 5.04972E+05  8416.2      140.27      5.8446     1.60016E-02
         TOTAL TIME 2.15290E+07 3.58816E+05  5980.3      249.18     0.68221    
1
 
 SOLVING FOR HEAD 
                                                   Max.-Head-Change                         Max.-Flux-Residual
  Residual-Control   Outer-Iter.   Inner-Iter.     Column Row Layer    Maximum-Head-Change  Column Row Layer    Maximum-Flux-Residual          L2-NORM 
          0                 1           2             4    7     1       0.2338891787E-01       4    7    1         0.7997238369E+00      0.2271821031E+01
          0                 2           2             6    2     1       0.2363584154E-02       4    7    1         0.6872619281E-01      0.2045162290E+00
          0                 3           1             6    2     1       0.5833219100E-03       6    2    1         0.9977434151E-02      0.2363007742E-01
          0                 4           1             6    2     1       0.1439699777E-03       6    2    1         0.2463098638E-02      0.4523526896E-02
          0                 5           1             6    2     1       0.3553617821E-04       6    2    1         0.6078623482E-03      0.1104671992E-02

    ------------------------------------------------
       NWT REQUIRED            5 OUTER ITERATIONS 
       AND A TOTAL OF          7 INNER ITERATIONS.
    ------------------------------------------------

 NO OUTPUT CONTROL FOR STRESS PERIOD    9   TIME STEP    6
 
 SOLVING FOR HEAD 
                                                   Max.-Head-Change                         Max.-Flux-Residual
  Residual-Control   Outer-Iter.   Inner-Iter.     Column Row Layer    Maximum-Head-Change  Column Row Layer    Maximum-Flux-Residual          L2-NORM 
          0                 1           2             4    7     1       0.2565915087E-01       4    7    1         0.7977564059E+00      0.2260862916E+01
          0                 2           2             6    2     1       0.2407213845E-02       4    7    1         0.6852601124E-01      0.2018825401E+00
          0                 3           1             6    2     1       0.5862728204E-03       6    2    1         0.9118406172E-02      0.2250597630E-01
          0                 4           1             6    2     1       0.1427957629E-03       6    2    1         0.2221444852E-02      0.4130353771E-02
          0                 5           1            10   10     1       0.3642211655E-04       6    2    1         0.5410154106E-03      0.9935104263E-03

    ------------------------------------------------
       NWT REQUIRED            5 OUTER ITERATIONS 
       AND A TOTAL OF          7 INNER ITERATIONS.
    ------------------------------------------------

 NO OUTPUT CONTROL FOR STRESS PERIOD    9   TIME STEP    7
 
 SOLVING FOR HEAD 
                                                   Max.-Head-Change                         Max.-Flux-Residual
  Residual-Control   Outer-Iter.   Inner-Iter.     Column Row Layer    Maximum-Head-Change  Column Row Layer    Maximum-Flux-Residual          L2-NORM 
          0                 1           2             4    7     1       0.2814208194E-01       4    7    1         0.7955928022E+00      0.2247456957E+01
          0                 2           2             6    2     1       0.2489946411E-02       4    7    1         0.6830624529E-01      0.2004267125E+00
          0                 3           1             6    2     1       0.5984174050E-03       6    2    1         0.8461629848E-02      0.2188945272E-01
          0                 4           1             6    2     1       0.1438340239E-03       6    2    1         0.2034512532E-02      0.3888656188E-02
          0                 5           1            10   10     1       0.3914489290E-04       6    2    1         0.4889403088E-03      0.9234057345E-03

    ------------------------------------------------
       NWT REQUIRED            5 OUTER ITERATIONS 
       AND A TOTAL OF          7 INNER ITERATIONS.
    ------------------------------------------------

 NO OUTPUT CONTROL FOR STRESS PERIOD    9   TIME STEP    8
 
 SOLVING FOR HEAD 
                                                   Max.-Head-Change                         Max.-Flux-Residual
  Residual-Control   Outer-Iter.   Inner-Iter.     Column Row Layer    Maximum-Head-Change  Column Row Layer    Maximum-Flux-Residual          L2-NORM 
          0                 1           2             4    7     1       0.3085607983E-01       4    7    1         0.7932153698E+00      0.2232176507E+01
          0                 2           2             4    7     1       0.2646091997E-02       4    7    1         0.6806519591E-01      0.1968336135E+00
          0                 3           1             6    2     1       0.6054011987E-03       6    2    1         0.7784246780E-02      0.2074287149E-01
          0                 4           1             6    2     1       0.1454610305E-03       6    2    1         0.1870933747E-02      0.3483153180E-02
          0                 5           1            10   10     1       0.4190980745E-04       6    2    1         0.4494736120E-03      0.8021328849E-03

    ------------------------------------------------
       NWT REQUIRED            5 OUTER ITERATIONS 
       AND A TOTAL OF          7 INNER ITERATIONS.
    ------------------------------------------------

 NO OUTPUT CONTROL FOR STRESS PERIOD    9   TIME STEP    9
 
 SOLVING FOR HEAD 
                                                   Max.-Head-Change                         Max.-Flux-Residual
  Residual-Control   Outer-Iter.   Inner-Iter.     Column Row Layer    Maximum-Head-Change  Column Row Layer    Maximum-Flux-Residual          L2-NORM 
          0                 1           2             4    7     1       0.3382050179E-01       4    7    1         0.7906071212E+00      0.2221036985E+01
          0                 2           2             4    7     1       0.2898435685E-02       4    7    1         0.6779963745E-01      0.1945920878E+00
          0                 3           1             6    2     1       0.5890442203E-03       6    2    1         0.6886857681E-02      0.1982948497E-01
          0                 4           1             6    2     1       0.1394351164E-03       6    2    1         0.1630791754E-02      0.3141746861E-02
          0                 5           1            10   10     1       0.4474235204E-04       6    2    1         0.3859740498E-03      0.7306945675E-03

    ------------------------------------------------
       NWT REQUIRED            5 OUTER ITERATIONS 
       AND A TOTAL OF          7 INNER ITERATIONS.
    ------------------------------------------------

 OUTPUT CONTROL FOR STRESS PERIOD    9   TIME STEP   10
    PRINT BUDGET
    SAVE BUDGET

            WELLS   PERIOD    9   STEP  10
 WELL      1   LAYER   1   ROW     6   COL     4   RATE    -1.00000    
 WELL      2   LAYER   1   ROW     6   COL     5   RATE    -1.00000    
 WELL      3   LAYER   1   ROW     7   COL     4   RATE    -1.00000    
 WELL      4   LAYER   1   ROW     7   COL     5   RATE    -1.00000    
 WELL      5   LAYER   1   ROW     8   COL     4   RATE    -1.00000    
 WELL      6   LAYER   1   ROW     8   COL     5   RATE    -1.00000    
 WELL      7   LAYER   1   ROW     9   COL     4   RATE    -1.00000    
 WELL      8   LAYER   1   ROW     9   COL     5   RATE    -1.00000    
 WELL      9   LAYER   1   ROW    10   COL     4   RATE    -1.00000    
 WELL     10   LAYER   1   ROW    10   COL     5   RATE    -1.00000    

  HEAD DEP BOUNDS   PERIOD    9   STEP    10
 BOUNDARY      1   LAYER   1   ROW    13   COL     1   RATE   -0.282505    
 BOUNDARY      2   LAYER   1   ROW    14   COL     9   RATE    0.206695    



 STREAM LISTING     PERIOD      9   STEP       10

 LAYER ROW COL. STREAM  RCH.  FLOW INTO     FLOW TO   FLOW OUT OF   OVRLND.     DIRECT     STREAM       STREAM     STREAM     STREAM   STREAMBED  STREAMBED
                SEG.NO.  NO.  STRM. RCH.    AQUIFER    STRM. RCH.    RUNOFF     PRECIP       ET          HEAD       DEPTH      WIDTH   CONDCTNC.   GRADIENT

   1    1    1     1     1    2.5000E+01  1.1741E+00   2.3826E+01  0.000E+00  0.000E+00  0.000E+00  1.09422E+03  1.171E+00  1.294E+01  5.825E-01  6.718E-01
   1    2    2     1     2    2.3826E+01  2.6570E+00   2.1169E+01  0.000E+00  0.000E+00  0.000E+00  1.08920E+03  1.142E+00  1.255E+01  8.784E-01  1.008E+00
   1    3    3     1     3    2.1169E+01  2.9269E+00   1.8242E+01  0.000E+00  0.000E+00  0.000E+00  1.08351E+03  1.095E+00  1.191E+01  7.147E-01  1.365E+00
   1    3    4     1     4    1.8242E+01  2.4873E+00   1.5755E+01  0.000E+00  0.000E+00  0.000E+00  1.07846E+03  1.049E+00  1.107E+01  6.142E-01  1.350E+00
   1    4    5     2     1    5.7547E+00  2.6730E+00   3.0817E+00  0.000E+00  0.000E+00  0.000E+00  1.07236E+03  4.269E-01  1.200E+01  7.800E-01  1.142E+00
   1    5    6     2     2    3.0817E+00  1.9639E+00   1.1178E+00  0.000E+00  0.000E+00  0.000E+00  1.06678E+03  2.732E-01  1.200E+01  6.000E-01  1.091E+00
   1    6    6     2     3    1.1178E+00  1.1178E+00   0.0000E+00  0.000E+00  0.000E+00  0.000E+00  1.06183E+03  4.211E-02  1.200E+01  6.000E-01  1.014E+00
   1    7    6     2     4    0.0000E+00  0.0000E+00   0.0000E+00  0.000E+00  0.000E+00  0.000E+00  1.05708E+03  0.000E+00  1.200E+01  6.000E-01  1.000E+00
   1    8    6     2     5    0.0000E+00  0.0000E+00   0.0000E+00  0.000E+00  0.000E+00  0.000E+00  1.05236E+03  0.000E+00  1.200E+01  6.000E-01  1.000E+00
   1    3    5     3     1    1.0000E+01  1.5132E+00   8.4868E+00  0.000E+00  0.000E+00  0.000E+00  1.07555E+03  1.909E+00  9.636E+00  7.227E-01  1.047E+00
   1    3    6     3     2    8.4868E+00  1.3167E+00   7.1701E+00  0.000E+00  0.000E+00  0.000E+00  1.07264E+03  1.727E+00  8.909E+00  6.682E-01  9.853E-01
   1    3    7     3     3    7.1701E+00  1.0215E+00   6.1486E+00  0.000E+00  0.000E+00  0.000E+00  1.06987E+03  1.555E+00  8.218E+00  5.547E-01  9.207E-01
   1    4    8     3     4    6.1486E+00  1.5528E+00   4.5958E+00  0.000E+00  0.000E+00  0.000E+00  1.06682E+03  1.364E+00  7.455E+00  6.709E-01  1.157E+00
   1    5    8     3     5    4.5958E+00  1.4946E+00   3.1012E+00  0.000E+00  0.000E+00  0.000E+00  1.06362E+03  1.164E+00  6.655E+00  4.991E-01  1.497E+00
   1    6    8     3     6    3.1012E+00  5.5980E-01   2.5414E+00  0.000E+00  0.000E+00  0.000E+00  1.06158E+03  1.036E+00  6.145E+00  1.844E-01  1.518E+00
   1    5   10     4     1    1.0000E+01  9.0525E-01   9.0947E+00  0.000E+00  0.000E+00  0.000E+00  1.07835E+03  6.210E-01  1.000E+01  2.500E-01  1.207E+00
   1    5    9     4     2    9.0947E+00  1.7835E+00   7.3113E+00  0.000E+00  0.000E+00  0.000E+00  1.07148E+03  5.670E-01  1.000E+01  5.000E-01  1.189E+00
   1    6    8     4     3    7.3113E+00  1.2257E+00   6.0855E+00  0.000E+00  0.000E+00  0.000E+00  1.06368E+03  5.021E-01  1.000E+01  3.500E-01  1.167E+00
   1    6    8     5     1    8.6269E+00  2.8967E-01   8.3372E+00  0.000E+00  0.000E+00  0.000E+00  1.05863E+03  6.340E-01  1.371E+01  5.482E-01  1.761E-01
   1    7    7     5     2    8.3372E+00  1.2857E+00   7.0515E+00  0.000E+00  0.000E+00  0.000E+00  1.05411E+03  6.127E-01  1.293E+01  6.463E-01  6.631E-01
   1    8    7     5     3    7.0515E+00  9.5800E-01   6.0935E+00  0.000E+00  0.000E+00  0.000E+00  1.04983E+03  5.799E-01  1.176E+01  4.116E-01  7.758E-01
   1    8    6     5     4    6.0935E+00  9.0884E-01   5.1847E+00  0.000E+00  0.000E+00  0.000E+00  1.04680E+03  5.496E-01  1.073E+01  2.682E-01  1.130E+00
   1    9    6     6     1    5.1847E+00  1.8753E+00   3.3093E+00  0.000E+00  0.000E+00  0.000E+00  1.04315E+03  4.215E-01  1.200E+01  6.000E-01  1.042E+00
   1   10    7     6     2    3.3093E+00  1.1692E+00   2.1401E+00  0.000E+00  0.000E+00  0.000E+00  1.03850E+03  3.230E-01  1.200E+01  6.000E-01  6.496E-01
   1   11    7     6     3    2.1401E+00  8.4045E-01   1.2997E+00  0.000E+00  0.000E+00  0.000E+00  1.03388E+03  2.451E-01  1.200E+01  6.000E-01  4.669E-01
   1   12    7     6     4    1.2997E+00  4.3091E-01   8.6876E-01  0.000E+00  0.000E+00  0.000E+00  1.02928E+03  1.858E-01  1.200E+01  6.000E-01  2.394E-01
   1   13    7     6     5    8.6876E-01 -7.8972E-01   1.6585E+00  0.000E+00  0.000E+00  0.000E+00  1.02611E+03  2.037E-01  1.200E+01  2.400E-01 -1.097E+00
   1   14    9     7     1    1.5000E+02  1.7154E+00   1.4828E+02  0.000E+00  0.000E+00  0.000E+00  1.03987E+03  2.287E+00  5.529E+01  5.593E+00  1.022E-01
   1   13    8     7     2    1.4828E+02  1.7004E+00   1.4658E+02  0.000E+00  0.000E+00  0.000E+00  1.03478E+03  2.278E+00  5.525E+01  6.147E+00  9.221E-02
   1   13    7     7     3    1.4658E+02  1.5908E+00   1.4499E+02  0.000E+00  0.000E+00  0.000E+00  1.02969E+03  2.269E+00  5.521E+01  5.584E+00  9.497E-02
   1   13    6     8     1    1.4665E+02  4.1621E-01   1.4624E+02  0.000E+00  0.000E+00  0.000E+00  1.02467E+03  2.792E+00  4.048E+01  4.125E+00  3.363E-02
   1   13    5     8     2    1.4624E+02 -3.1226E-01   1.4655E+02  0.000E+00  0.000E+00  0.000E+00  1.01842E+03  2.791E+00  4.047E+01  4.124E+00 -2.524E-02
   1   13    4     8     3    1.4655E+02 -1.1272E+00   1.4768E+02  0.000E+00  0.000E+00  0.000E+00  1.01217E+03  2.796E+00  4.055E+01  4.132E+00 -9.094E-02
   1   13    3     8     4    1.4768E+02 -1.7924E+00   1.4947E+02  0.000E+00  0.000E+00  0.000E+00  1.00593E+03  2.807E+00  4.070E+01  4.147E+00 -1.441E-01
   1   13    2     8     5    1.4947E+02 -1.9082E+00   1.5138E+02  0.000E+00  0.000E+00  0.000E+00  9.99695E+02  2.820E+00  4.089E+01  4.167E+00 -1.527E-01
   1   13    1     8     6    1.5138E+02 -1.8245E+00   1.5320E+02  0.000E+00  0.000E+00  0.000E+00  9.94708E+02  2.833E+00  4.108E+01  2.512E+00 -2.422E-01



 UBDSV3 SAVING "           GW ET" ON UNIT  61 AT TIME STEP 10, STRESS PERIOD 9
 UBDSV3 SAVING "    UZF RECHARGE" ON UNIT  61 AT TIME STEP 10, STRESS PERIOD 9
 UBDSV3 SAVING " SURFACE LEAKAGE" ON UNIT  61 AT TIME STEP 10, STRESS PERIOD 9
 UBDSV3 SAVING "       HORT+DUNN" ON UNIT  61 AT TIME STEP 10, STRESS PERIOD 9
 UBDSV3 SAVING "  STORAGE CHANGE" ON UNIT  61 AT TIME STEP 10, STRESS PERIOD 9


UNSATURATED ZONE PACKAGE VOLUMETRIC BUDGET FOR  TIME STEP    10 STRESS PERIOD    9
  ------------------------------------------------------------------------------



     CUMULATIVE VOLUMES      L**3       RATES FOR THIS TIME STEP      L**3/T
     ------------------                 ------------------------

           IN:                                      IN:
           ---                                      ---
        INFILTRATION =  1414398573.3955          INFILTRATION =          25.4250

          OUT:                                     OUT:
          ----                                     ----
              UZF ET =  1680760396.6729                UZF ET =          65.3116
        UZF RECHARGE =   293532410.9235          UZF RECHARGE =          10.4023

            IN - OUT =  -559894234.2008              IN - OUT =         -50.2889

          STORAGE:                                 STORAGE:
          --------                                 --------
      STORAGE CHANGE =  -559662182.9018        STORAGE CHANGE =         -50.2878

 PERCENT DISCREPANCY IS DIFFERENCE BETWEEN IN-OUT MINUS CHANGE IN STORAGE
 DIVIDED BY THE AVERAGE OF IN AND OUT TIMES 100

 PERCENT DISCREPANCY =          -0.00     PERCENT DISCREPANCY =          -0.00






1
  VOLUMETRIC BUDGET FOR ENTIRE MODEL AT END OF TIME STEP   10, STRESS PERIOD   9
  ------------------------------------------------------------------------------

     CUMULATIVE VOLUMES      L**3       RATES FOR THIS TIME STEP      L**3/T
     ------------------                 ------------------------

           IN:                                      IN:
           ---                                      ---
             STORAGE     =    71971656.0000               STORAGE     =           0.5730
       CONSTANT HEAD     =           0.0000         CONSTANT HEAD     =           0.0000
               WELLS     =           0.0000                 WELLS     =           0.0000
     HEAD DEP BOUNDS     =     4618367.5000       HEAD DEP BOUNDS     =           0.2067
      STREAM LEAKAGE     =   882376576.0000        STREAM LEAKAGE     =          39.5539
        UZF RECHARGE     =   293532416.0000          UZF RECHARGE     =          10.4023
               GW ET     =           0.0000                 GW ET     =           0.0000
     SURFACE LEAKAGE     =           0.0000       SURFACE LEAKAGE     =           0.0000

                TOTAL IN =  1252498944.0000                  TOTAL IN =          50.7359

          OUT:                                     OUT:
          ----                                     ----
             STORAGE     =   335415456.0000               STORAGE     =          12.6226
       CONSTANT HEAD     =           0.0000         CONSTANT HEAD     =           0.0000
               WELLS     =   302262272.0000                 WELLS     =          10.0000
     HEAD DEP BOUNDS     =     6326127.0000       HEAD DEP BOUNDS     =           0.2825
      STREAM LEAKAGE     =   181033872.0000        STREAM LEAKAGE     =           7.7544
        UZF RECHARGE     =           0.0000          UZF RECHARGE     =           0.0000
               GW ET     =   427452960.0000                 GW ET     =          20.0760
     SURFACE LEAKAGE     =           0.0000       SURFACE LEAKAGE     =           0.0000

               TOTAL OUT =  1252490624.0000                 TOTAL OUT =          50.7355

                IN - OUT =        8320.0000                  IN - OUT =       4.2725E-04

     PERCENT DISCREPANCY =           0.00         PERCENT DISCREPANCY =           0.00






         TIME SUMMARY AT END OF TIME STEP   10 IN STRESS PERIOD    9
                    SECONDS     MINUTES      HOURS       DAYS        YEARS
                    -----------------------------------------------------------
   TIME STEP LENGTH 1.95033E+05  3250.6      54.176      2.2573     6.18023E-03
 STRESS PERIOD TIME 1.31823E+06  21971.      366.18      15.257     4.17723E-02
         TOTAL TIME 2.23422E+07 3.72370E+05  6206.2      258.59     0.70798    
1
 
 SOLVING FOR HEAD 
                                                   Max.-Head-Change                         Max.-Flux-Residual
  Residual-Control   Outer-Iter.   Inner-Iter.     Column Row Layer    Maximum-Head-Change  Column Row Layer    Maximum-Flux-Residual          L2-NORM 
          0                 1           2             1    4     1       0.6243554956E-01       4    7    1         0.7877367320E+00      0.2306592024E+01
          0                 2           2             1    4     1       0.2031300622E-01       1    4    1         0.2167560103E+00      0.2895239634E+00
          0                 3           2             1    4     1       0.6605061848E-02       1    4    1         0.7048153675E-01      0.7292997686E-01
          0                 4           2             1    4     1       0.2147692817E-02       1    4    1         0.2291812764E-01      0.2307835279E-01
          0                 5           1             1    4     1       0.6983355123E-03       1    4    1         0.7451990707E-02      0.7474421848E-02
          0                 6           1             1    4     1       0.2270672637E-03       1    4    1         0.2423059405E-02      0.2427770844E-02
          0                 7           1             1    4     1       0.7383191986E-04       1    4    1         0.7878691496E-03      0.7901923513E-03

    ------------------------------------------------
       NWT REQUIRED            7 OUTER ITERATIONS 
       AND A TOTAL OF         11 INNER ITERATIONS.
    ------------------------------------------------

 NO OUTPUT CONTROL FOR STRESS PERIOD    9   TIME STEP   11
 
 SOLVING FOR HEAD 
                                                   Max.-Head-Change                         Max.-Flux-Residual
  Residual-Control   Outer-Iter.   Inner-Iter.     Column Row Layer    Maximum-Head-Change  Column Row Layer    Maximum-Flux-Residual          L2-NORM 
          0                 1           2             1    4     1       0.7061141341E-01       4    7    1         0.7845805873E+00      0.2304332371E+01
          0                 2           2             1    4     1       0.2259954588E-01       1    4    1         0.2194507094E+00      0.2915998759E+00
          0                 3           2             1    4     1       0.7232737169E-02       1    4    1         0.7020162899E-01      0.7269663905E-01
          0                 4           2             1    4     1       0.2314710198E-02       1    4    1         0.2247047846E-01      0.2262726619E-01
          0                 5           1             1    4     1       0.7407752608E-03       1    4    1         0.7190922946E-02      0.7210329542E-02
          0                 6           1             1    4     1       0.2370687851E-03       1    4    1         0.2301336660E-02      0.2304989057E-02
          0                 7           1             1    4     1       0.7586847254E-04       1    4    1         0.7364881164E-03      0.7382387881E-03

    ------------------------------------------------
       NWT REQUIRED            7 OUTER ITERATIONS 
       AND A TOTAL OF         11 INNER ITERATIONS.
    ------------------------------------------------

 NO OUTPUT CONTROL FOR STRESS PERIOD    9   TIME STEP   12
 
 SOLVING FOR HEAD 
                                                   Max.-Head-Change                         Max.-Flux-Residual
  Residual-Control   Outer-Iter.   Inner-Iter.     Column Row Layer    Maximum-Head-Change  Column Row Layer    Maximum-Flux-Residual          L2-NORM 
          0                 1           2             1    4     1       0.7393248785E-01       4    7    1         0.7811032032E+00      0.2290343610E+01
          0                 2           2             1    4     1       0.2335396893E-01       1    4    1         0.2063172226E+00      0.2826368876E+00
          0                 3           2             1    4     1       0.7342738713E-02       1    4    1         0.6483581053E-01      0.6763440494E-01
          0                 4           2             1    4     1       0.2308572514E-02       1    4    1         0.2038843281E-01      0.2055924327E-01
          0                 5           1             1    4     1       0.7258107979E-03       1    4    1         0.6409784753E-02      0.6428468103E-02
          0                 6           1             1    4     1       0.2281921251E-03       1    4    1         0.2015255095E-02      0.2018510489E-02
          0                 7           1             1    4     1       0.7174250971E-04       1    4    1         0.6335842157E-03      0.6352432059E-03

    ------------------------------------------------
       NWT REQUIRED            7 OUTER ITERATIONS 
       AND A TOTAL OF         11 INNER ITERATIONS.
    ------------------------------------------------

 NO OUTPUT CONTROL FOR STRESS PERIOD    9   TIME STEP   13
 
 SOLVING FOR HEAD 
                                                   Max.-Head-Change                         Max.-Flux-Residual
  Residual-Control   Outer-Iter.   Inner-Iter.     Column Row Layer    Maximum-Head-Change  Column Row Layer    Maximum-Flux-Residual          L2-NORM 
          0                 1           2             1    4     1       0.7820688470E-01       4    7    1         0.7772566943E+00      0.2280274754E+01
          0                 2           2             1    4     1       0.2456554046E-01       1    4    1         0.1974454427E+00      0.2769449348E+00
          0                 3           2             1    4     1       0.7715633843E-02       1    4    1         0.6198399534E-01      0.6493851987E-01
          0                 4           2             1    4     1       0.2423266890E-02       1    4    1         0.1947130876E-01      0.1963638665E-01
          0                 5           1             1    4     1       0.7610680780E-03       1    4    1         0.6115024745E-02      0.6130540615E-02
          0                 6           1             1    4     1       0.2390243468E-03       1    4    1         0.1920555386E-02      0.1923097666E-02
          0                 7           1             1    4     1       0.7506871121E-04       1    4    1         0.6031736644E-03      0.6046482734E-03

    ------------------------------------------------
       NWT REQUIRED            7 OUTER ITERATIONS 
       AND A TOTAL OF         11 INNER ITERATIONS.
    ------------------------------------------------

 NO OUTPUT CONTROL FOR STRESS PERIOD    9   TIME STEP   14
 
 SOLVING FOR HEAD 
                                                   Max.-Head-Change                         Max.-Flux-Residual
  Residual-Control   Outer-Iter.   Inner-Iter.     Column Row Layer    Maximum-Head-Change  Column Row Layer    Maximum-Flux-Residual          L2-NORM 
          0                 1           2             1    4     1       0.7936075293E-01       4    7    1         0.7730027756E+00      0.2324623909E+01
          0                 2           2             1    6     1       0.2456796274E-01       1    6    1         0.1799756104E+00      0.3181101180E+00
          0                 3           2             1    6     1       0.7816572462E-02       1    6    1         0.5726347866E-01      0.8157745063E-01
          0                 4           2             1    6     1       0.2486712377E-02       1    6    1         0.1821890903E-01      0.2499501054E-01
          0                 5           1             1    6     1       0.7910671429E-03       1    6    1         0.5795905504E-02      0.7811364518E-02
          0                 6           1             1    6     1       0.2516443276E-03       1    6    1         0.1843766262E-02      0.2448762992E-02
          0                 7           1             1    6     1       0.8004800390E-04       1    6    1         0.5865112715E-03      0.7689045758E-03

    ------------------------------------------------
       NWT REQUIRED            7 OUTER ITERATIONS 
       AND A TOTAL OF         11 INNER ITERATIONS.
    ------------------------------------------------

 OUTPUT CONTROL FOR STRESS PERIOD    9   TIME STEP   15
    PRINT BUDGET
    PRINT HEAD FOR ALL LAYERS
    SAVE HEAD FOR ALL LAYERS
    SAVE BUDGET

            WELLS   PERIOD    9   STEP  15
 WELL      1   LAYER   1   ROW     6   COL     4   RATE    -1.00000    
 WELL      2   LAYER   1   ROW     6   COL     5   RATE    -1.00000    
 WELL      3   LAYER   1   ROW     7   COL     4   RATE    -1.00000    
 WELL      4   LAYER   1   ROW     7   COL     5   RATE    -1.00000    
 WELL      5   LAYER   1   ROW     8   COL     4   RATE    -1.00000    
 WELL      6   LAYER   1   ROW     8   COL     5   RATE    -1.00000    
 WELL      7   LAYER   1   ROW     9   COL     4   RATE    -1.00000    
 WELL      8   LAYER   1   ROW     9   COL     5   RATE    -1.00000    
 WELL      9   LAYER   1   ROW    10   COL     4   RATE    -1.00000    
 WELL     10   LAYER   1   ROW    10   COL     5   RATE    -1.00000    

  HEAD DEP BOUNDS   PERIOD    9   STEP    15
 BOUNDARY      1   LAYER   1   ROW    13   COL     1   RATE   -0.282353    
 BOUNDARY      2   LAYER   1   ROW    14   COL     9   RATE    0.206694    



 STREAM LISTING     PERIOD      9   STEP       15

 LAYER ROW COL. STREAM  RCH.  FLOW INTO     FLOW TO   FLOW OUT OF   OVRLND.     DIRECT     STREAM       STREAM     STREAM     STREAM   STREAMBED  STREAMBED
                SEG.NO.  NO.  STRM. RCH.    AQUIFER    STRM. RCH.    RUNOFF     PRECIP       ET          HEAD       DEPTH      WIDTH   CONDCTNC.   GRADIENT

   1    1    1     1     1    2.5000E+01  1.1765E+00   2.3824E+01  0.000E+00  0.000E+00  0.000E+00  1.09422E+03  1.171E+00  1.294E+01  5.825E-01  6.732E-01
   1    2    2     1     2    2.3824E+01  2.6573E+00   2.1166E+01  0.000E+00  0.000E+00  0.000E+00  1.08920E+03  1.142E+00  1.255E+01  8.784E-01  1.008E+00
   1    3    3     1     3    2.1166E+01  2.9267E+00   1.8240E+01  0.000E+00  0.000E+00  0.000E+00  1.08351E+03  1.095E+00  1.191E+01  7.147E-01  1.365E+00
   1    3    4     1     4    1.8240E+01  2.4871E+00   1.5752E+01  0.000E+00  0.000E+00  0.000E+00  1.07846E+03  1.049E+00  1.107E+01  6.142E-01  1.350E+00
   1    4    5     2     1    5.7524E+00  2.6729E+00   3.0796E+00  0.000E+00  0.000E+00  0.000E+00  1.07236E+03  4.267E-01  1.200E+01  7.800E-01  1.142E+00
   1    5    6     2     2    3.0796E+00  1.9638E+00   1.1158E+00  0.000E+00  0.000E+00  0.000E+00  1.06678E+03  2.730E-01  1.200E+01  6.000E-01  1.091E+00
   1    6    6     2     3    1.1158E+00  1.1158E+00   0.0000E+00  0.000E+00  0.000E+00  0.000E+00  1.06183E+03  4.206E-02  1.200E+01  6.000E-01  1.014E+00
   1    7    6     2     4    0.0000E+00  0.0000E+00   0.0000E+00  0.000E+00  0.000E+00  0.000E+00  1.05708E+03  0.000E+00  1.200E+01  6.000E-01  1.000E+00
   1    8    6     2     5    0.0000E+00  0.0000E+00   0.0000E+00  0.000E+00  0.000E+00  0.000E+00  1.05236E+03  0.000E+00  1.200E+01  6.000E-01  1.000E+00
   1    3    5     3     1    1.0000E+01  1.6053E+00   8.3947E+00  0.000E+00  0.000E+00  0.000E+00  1.07555E+03  1.909E+00  9.636E+00  7.227E-01  1.111E+00
   1    3    6     3     2    8.3947E+00  1.3547E+00   7.0400E+00  0.000E+00  0.000E+00  0.000E+00  1.07264E+03  1.727E+00  8.909E+00  6.682E-01  1.014E+00
   1    3    7     3     3    7.0400E+00  1.0041E+00   6.0358E+00  0.000E+00  0.000E+00  0.000E+00  1.06987E+03  1.555E+00  8.218E+00  5.547E-01  9.051E-01
   1    4    8     3     4    6.0358E+00  1.5684E+00   4.4674E+00  0.000E+00  0.000E+00  0.000E+00  1.06682E+03  1.364E+00  7.455E+00  6.709E-01  1.169E+00
   1    5    8     3     5    4.4674E+00  1.4919E+00   2.9755E+00  0.000E+00  0.000E+00  0.000E+00  1.06362E+03  1.164E+00  6.655E+00  4.991E-01  1.495E+00
   1    6    8     3     6    2.9755E+00  5.5980E-01   2.4157E+00  0.000E+00  0.000E+00  0.000E+00  1.06158E+03  1.036E+00  6.145E+00  1.844E-01  1.518E+00
   1    5   10     4     1    1.0000E+01  9.0525E-01   9.0947E+00  0.000E+00  0.000E+00  0.000E+00  1.07835E+03  6.210E-01  1.000E+01  2.500E-01  1.207E+00
   1    5    9     4     2    9.0947E+00  1.7835E+00   7.3113E+00  0.000E+00  0.000E+00  0.000E+00  1.07148E+03  5.670E-01  1.000E+01  5.000E-01  1.189E+00
   1    6    8     4     3    7.3113E+00  1.2257E+00   6.0855E+00  0.000E+00  0.000E+00  0.000E+00  1.06368E+03  5.021E-01  1.000E+01  3.500E-01  1.167E+00
   1    6    8     5     1    8.5012E+00  2.8435E-01   8.2169E+00  0.000E+00  0.000E+00  0.000E+00  1.05863E+03  6.308E-01  1.359E+01  5.434E-01  1.744E-01
   1    7    7     5     2    8.2169E+00  1.2768E+00   6.9400E+00  0.000E+00  0.000E+00  0.000E+00  1.05411E+03  6.095E-01  1.281E+01  6.405E-01  6.645E-01
   1    8    7     5     3    6.9400E+00  9.4801E-01   5.9920E+00  0.000E+00  0.000E+00  0.000E+00  1.04983E+03  5.766E-01  1.165E+01  4.076E-01  7.753E-01
   1    8    6     5     4    5.9920E+00  8.8941E-01   5.1026E+00  0.000E+00  0.000E+00  0.000E+00  1.04680E+03  5.465E-01  1.062E+01  2.656E-01  1.116E+00
   1    9    6     6     1    5.1026E+00  1.8573E+00   3.2454E+00  0.000E+00  0.000E+00  0.000E+00  1.04314E+03  4.172E-01  1.200E+01  6.000E-01  1.032E+00
   1   10    7     6     2    3.2454E+00  1.1624E+00   2.0830E+00  0.000E+00  0.000E+00  0.000E+00  1.03850E+03  3.186E-01  1.200E+01  6.000E-01  6.458E-01
   1   11    7     6     3    2.0830E+00  8.2962E-01   1.2533E+00  0.000E+00  0.000E+00  0.000E+00  1.03388E+03  2.406E-01  1.200E+01  6.000E-01  4.609E-01
   1   12    7     6     4    1.2533E+00  4.1910E-01   8.3424E-01  0.000E+00  0.000E+00  0.000E+00  1.02927E+03  1.816E-01  1.200E+01  6.000E-01  2.328E-01
   1   13    7     6     5    8.3424E-01 -7.8987E-01   1.6241E+00  0.000E+00  0.000E+00  0.000E+00  1.02611E+03  2.003E-01  1.200E+01  2.400E-01 -1.097E+00
   1   14    9     7     1    1.5000E+02  1.7152E+00   1.4828E+02  0.000E+00  0.000E+00  0.000E+00  1.03987E+03  2.287E+00  5.529E+01  5.593E+00  1.022E-01
   1   13    8     7     2    1.4828E+02  1.6997E+00   1.4659E+02  0.000E+00  0.000E+00  0.000E+00  1.03478E+03  2.278E+00  5.525E+01  6.147E+00  9.217E-02
   1   13    7     7     3    1.4659E+02  1.6059E+00   1.4498E+02  0.000E+00  0.000E+00  0.000E+00  1.02969E+03  2.269E+00  5.521E+01  5.584E+00  9.587E-02
   1   13    6     8     1    1.4660E+02  4.3092E-01   1.4617E+02  0.000E+00  0.000E+00  0.000E+00  1.02467E+03  2.791E+00  4.047E+01  4.124E+00  3.483E-02
   1   13    5     8     2    1.4617E+02 -2.9657E-01   1.4647E+02  0.000E+00  0.000E+00  0.000E+00  1.01842E+03  2.791E+00  4.047E+01  4.124E+00 -2.397E-02
   1   13    4     8     3    1.4647E+02 -1.1202E+00   1.4759E+02  0.000E+00  0.000E+00  0.000E+00  1.01217E+03  2.796E+00  4.054E+01  4.131E+00 -9.039E-02
   1   13    3     8     4    1.4759E+02 -1.7954E+00   1.4938E+02  0.000E+00  0.000E+00  0.000E+00  1.00593E+03  2.806E+00  4.069E+01  4.146E+00 -1.443E-01
   1   13    2     8     5    1.4938E+02 -1.9107E+00   1.5130E+02  0.000E+00  0.000E+00  0.000E+00  9.99694E+02  2.819E+00  4.088E+01  4.166E+00 -1.529E-01
   1   13    1     8     6    1.5130E+02 -1.8156E+00   1.5311E+02  0.000E+00  0.000E+00  0.000E+00  9.94707E+02  2.832E+00  4.107E+01  2.511E+00 -2.410E-01



 UBDSV3 SAVING "           GW ET" ON UNIT  61 AT TIME STEP 15, STRESS PERIOD 9
 UBDSV3 SAVING "    UZF RECHARGE" ON UNIT  61 AT TIME STEP 15, STRESS PERIOD 9
 UBDSV3 SAVING " SURFACE LEAKAGE" ON UNIT  61 AT TIME STEP 15, STRESS PERIOD 9
 UBDSV3 SAVING "       HORT+DUNN" ON UNIT  61 AT TIME STEP 15, STRESS PERIOD 9
 UBDSV3 SAVING "  STORAGE CHANGE" ON UNIT  61 AT TIME STEP 15, STRESS PERIOD 9


UNSATURATED ZONE PACKAGE VOLUMETRIC BUDGET FOR  TIME STEP    15 STRESS PERIOD    9
  ------------------------------------------------------------------------------



     CUMULATIVE VOLUMES      L**3       RATES FOR THIS TIME STEP      L**3/T
     ------------------                 ------------------------

           IN:                                      IN:
           ---                                      ---
        INFILTRATION =  1447699382.9512          INFILTRATION =          25.4250

          OUT:                                     OUT:
          ----                                     ----
              UZF ET =  1759973134.4639                UZF ET =          58.0021
        UZF RECHARGE =   307563864.2862          UZF RECHARGE =          10.6912

            IN - OUT =  -619837615.7989              IN - OUT =         -43.2682

          STORAGE:                                 STORAGE:
          --------                                 --------
      STORAGE CHANGE =  -619598886.8566        STORAGE CHANGE =         -43.2602

 PERCENT DISCREPANCY IS DIFFERENCE BETWEEN IN-OUT MINUS CHANGE IN STORAGE
 DIVIDED BY THE AVERAGE OF IN AND OUT TIMES 100

 PERCENT DISCREPANCY =          -0.00     PERCENT DISCREPANCY =          -0.01






1
              HEAD IN LAYER 1 AT END OF TIME STEP 15 IN STRESS PERIOD 9
  ---------------------------------------------------------------------------

           1       2       3       4       5       6       7       8       9      10
 ...................................................................................
   1  1092.20 1087.70 6999.00 6999.00 6999.00 6999.00 6999.00 6999.00 6999.00 6999.00
   2  1087.63 1086.18 1078.35 6999.00 6999.00 1071.74 1071.33 1068.98 6999.00 6999.00
   3  6999.00 1074.85 1078.85 1074.26 1073.32 1070.61 1068.06 1066.03 6999.00 6999.00
   4  1066.47 1065.98 1064.96 1063.69 1066.30 1061.50 1059.91 1064.48 1062.24 6999.00
   5  1062.59 1059.39 1055.75 1053.49 1055.79 1060.51 1057.24 1060.63 1064.42 1065.62
   6  1058.90 1054.17 1049.72 1040.06 1043.27 1053.31 1054.05 1058.11 1057.81 1063.25
   7  1055.92 1049.12 1044.28 1031.62 1035.37 1045.93 1052.12 1052.67 1053.45 6999.00
   8  6999.00 1043.16 1039.57 1027.70 1031.22 1043.45 1047.50 1047.49 1049.86 6999.00
   9  6999.00 1037.23 1034.74 1023.89 1027.81 1040.05 1040.20 1041.63 1045.54 6999.00
  10  6999.00 1031.37 1030.19 1021.76 1024.30 1032.38 1036.56 1037.33 1041.83 1046.51
  11  6999.00 1023.85 1024.37 1024.09 1025.74 1029.04 1032.49 1033.88 1037.90 6999.00
  12  1006.75 1013.42 1015.92 1019.52 1022.36 1025.52 1028.57 1030.50 1035.28 6999.00
  13   995.43 1000.15 1006.36 1012.44 1018.49 1024.56 1029.40 1034.50 1035.85 6999.00
  14  6999.00 1012.31 1017.05 1021.63 1025.51 1028.55 1031.10 1034.63 1039.56 6999.00
  15  6999.00 6999.00 1026.36 1028.56 1031.31 1033.01 6999.00 6999.00 6999.00 6999.00
1
              HEAD IN LAYER 2 AT END OF TIME STEP 15 IN STRESS PERIOD 9
  ---------------------------------------------------------------------------

           1       2       3       4       5       6       7       8       9      10
 ...................................................................................
   1  1091.02 1087.13 6999.00 6999.00 6999.00 6999.00 6999.00 6999.00 6999.00 6999.00
   2  1087.40 1080.79 1075.46 6999.00 6999.00 1070.92 1070.52 1068.76 6999.00 6999.00
   3  6999.00 1072.74 1068.21 1064.48 1063.80 1064.49 1065.11 1065.56 6999.00 6999.00
   4  1065.65 1065.29 1062.42 1059.06 1057.66 1057.19 1058.49 1061.71 1061.85 6999.00
   5  1061.94 1058.72 1055.69 1053.72 1053.45 1053.77 1054.12 1055.99 1059.96 1063.87
   6  1058.21 1053.65 1050.14 1048.63 1048.89 1050.11 1051.40 1053.29 1056.94 1062.93
   7  1055.24 1048.68 1045.07 1043.85 1044.49 1046.08 1048.00 1050.49 1053.33 6999.00
   8  6999.00 1042.88 1040.29 1039.45 1040.26 1041.92 1043.76 1047.27 1049.57 6999.00
   9  6999.00 1036.86 1035.37 1035.11 1036.08 1037.76 1039.21 1041.53 1045.22 6999.00
  10  6999.00 1030.99 1030.68 1031.24 1032.43 1034.06 1035.33 1037.24 1041.42 1046.51
  11  6999.00 1024.01 1025.17 1027.70 1029.36 1031.10 1032.56 1034.11 1037.61 6999.00
  12  1007.03 1014.75 1019.86 1023.74 1026.44 1028.71 1030.40 1031.79 1035.22 6999.00
  13  1000.28 1007.76 1015.77 1021.08 1024.62 1027.52 1030.04 1032.67 1035.43 6999.00
  14  6999.00 1012.59 1017.45 1021.95 1025.61 1028.53 1030.95 1034.24 1036.91 6999.00
  15  6999.00 6999.00 1026.36 1028.56 1030.83 1032.53 6999.00 6999.00 6999.00 6999.00

 HEAD WILL BE SAVED ON UNIT   58 AT END OF TIME STEP   15, STRESS PERIOD    9
1
  VOLUMETRIC BUDGET FOR ENTIRE MODEL AT END OF TIME STEP   15, STRESS PERIOD   9
  ------------------------------------------------------------------------------

     CUMULATIVE VOLUMES      L**3       RATES FOR THIS TIME STEP      L**3/T
     ------------------                 ------------------------

           IN:                                      IN:
           ---                                      ---
             STORAGE     =    73270408.0000               STORAGE     =           1.2713
       CONSTANT HEAD     =           0.0000         CONSTANT HEAD     =           0.0000
               WELLS     =           0.0000                 WELLS     =           0.0000
     HEAD DEP BOUNDS     =     4889088.0000       HEAD DEP BOUNDS     =           0.2067
      STREAM LEAKAGE     =   934216320.0000        STREAM LEAKAGE     =          39.6175
        UZF RECHARGE     =   307563840.0000          UZF RECHARGE     =          10.6912
               GW ET     =           0.0000                 GW ET     =           0.0000
     SURFACE LEAKAGE     =           0.0000       SURFACE LEAKAGE     =           0.0000

                TOTAL IN =  1319939584.0000                  TOTAL IN =          51.7867

          OUT:                                     OUT:
          ----                                     ----
             STORAGE     =   352867872.0000               STORAGE     =          13.6345
       CONSTANT HEAD     =           0.0000         CONSTANT HEAD     =           0.0000
               WELLS     =   315359968.0000                 WELLS     =          10.0000
     HEAD DEP BOUNDS     =     6696015.5000       HEAD DEP BOUNDS     =           0.2824
      STREAM LEAKAGE     =   191192192.0000        STREAM LEAKAGE     =           7.7283
        UZF RECHARGE     =           0.0000          UZF RECHARGE     =           0.0000
               GW ET     =   453815008.0000                 GW ET     =          20.1411
     SURFACE LEAKAGE     =           0.0000       SURFACE LEAKAGE     =           0.0000

               TOTAL OUT =  1319931008.0000                 TOTAL OUT =          51.7863

                IN - OUT =        8576.0000                  IN - OUT =       3.8528E-04

     PERCENT DISCREPANCY =           0.00         PERCENT DISCREPANCY =           0.00






         TIME SUMMARY AT END OF TIME STEP   15 IN STRESS PERIOD    9
                    SECONDS     MINUTES      HOURS       DAYS        YEARS
                    -----------------------------------------------------------
   TIME STEP LENGTH 3.14103E+05  5235.0      87.251      3.6354     9.95332E-03
 STRESS PERIOD TIME 2.62800E+06  43800.      730.00      30.417     8.32763E-02
         TOTAL TIME 2.36520E+07 3.94200E+05  6570.0      273.75     0.74949    
1
1
                            STRESS PERIOD NO.   10, LENGTH =   2628000.    
                            -----------------------------------------------

                              NUMBER OF TIME STEPS =    15

                               MULTIPLIER FOR DELT =     1.100

                            INITIAL TIME STEP SIZE =   82713.07    

      0 WELLS

 REUSING NON-PARAMETER GHB CELLS FROM LAST STRESS PERIOD

      2 GHB CELLS

 REUSING STREAM SEGMENT DATA FROM LAST STRESS PERIOD



            AREAL INFILTRATION RATE
 READING ON UNIT   19 WITH FORMAT: (10F4.0)            

            1           2           3           4           5           6           7           8           9          10
 ........................................................................................................................
   1   2.0000E-09  4.0000E-09   0.000       0.000       0.000       0.000       0.000       0.000       0.000       0.000    
   2   4.0000E-09  2.0000E-09  4.0000E-09   0.000       0.000      1.6000E-08  1.6000E-08  1.0000E-08   0.000       0.000    
   3    0.000      1.0000E-08  2.0000E-09  2.0000E-09  1.6000E-08  1.6000E-08  1.0000E-08  1.0000E-08   0.000       0.000    
   4   1.6000E-08  1.0000E-08  2.0000E-09  2.0000E-09  2.0000E-09  2.0000E-09  2.0000E-09  2.0000E-09  4.0000E-09   0.000    
   5   1.6000E-08  1.0000E-08  2.0000E-09  2.0000E-09  2.0000E-09  2.0000E-09  2.0000E-09  2.0000E-09  2.0000E-09  2.0000E-09
   6   1.6000E-08  1.0000E-08  1.0000E-08  4.0000E-09  4.0000E-09  2.0000E-09  2.0000E-09  2.0000E-09  2.0000E-09  1.0000E-08
   7   1.6000E-08  1.0000E-08  1.0000E-08  4.0000E-09  4.0000E-09  2.0000E-09  2.0000E-09  4.0000E-09  4.0000E-09   0.000    
   8    0.000      1.0000E-08  1.0000E-08  4.0000E-09  4.0000E-09  2.0000E-09  2.0000E-09  4.0000E-09  1.0000E-08   0.000    
   9    0.000      1.0000E-08  1.0000E-08  4.0000E-09  4.0000E-09  2.0000E-09  2.0000E-09  4.0000E-09  1.0000E-08   0.000    
  10    0.000      1.0000E-08  1.0000E-08  4.0000E-09  4.0000E-09  2.0000E-09  2.0000E-09  4.0000E-09  1.0000E-08  1.6000E-08
  11    0.000      2.0000E-09  2.0000E-09  2.0000E-09  2.0000E-09  2.0000E-09  2.0000E-09  4.0000E-09  1.0000E-08   0.000    
  12   2.0000E-09  2.0000E-09  2.0000E-09  2.0000E-09  2.0000E-09  2.0000E-09  2.0000E-09  2.0000E-09  4.0000E-09   0.000    
  13   2.0000E-09  2.0000E-09  4.0000E-09  4.0000E-09  4.0000E-09  4.0000E-09  4.0000E-09  2.0000E-09  2.0000E-09   0.000    
  14    0.000      4.0000E-09  1.0000E-08  1.0000E-08  1.0000E-08  1.0000E-08  1.0000E-08  4.0000E-09  2.0000E-09   0.000    
  15    0.000       0.000      1.6000E-08  1.6000E-08  1.6000E-08  1.6000E-08   0.000       0.000       0.000       0.000    

USING ET RATE FROM PREVIOUS STRESS PERIOD. CURRENT PERIOD IS:      10

 USING ET EXTINCTION DEPTH FROM PREVIOUS STRESS PERIOD. CURRENT PERIOD IS:      10

 USING EXTINCTION WATER CONTENT FROM PREVIOUS STRESS PERIOD. CURRENT PERIOD IS:      10
 
 SOLVING FOR HEAD 
                                                   Max.-Head-Change                         Max.-Flux-Residual
  Residual-Control   Outer-Iter.   Inner-Iter.     Column Row Layer    Maximum-Head-Change  Column Row Layer    Maximum-Flux-Residual          L2-NORM 
          0                 1           2             4    7     1       0.3213422599E-01       4    7    1         0.1768349658E+01      0.5316501673E+01
          0                 2           2             1    6     1       0.7429897889E-02       1    6    1         0.2049762201E+00      0.5261549615E+00
          0                 3           2             1    6     1       0.2351063150E-02       1    6    1         0.6483944722E-01      0.9244747512E-01
          0                 4           1             1    6     1       0.7439371181E-03       1    6    1         0.2051951334E-01      0.2634494975E-01
          0                 5           1             1    6     1       0.2353981697E-03       1    6    1         0.6492641720E-02      0.8169523225E-02
          0                 6           1             1    6     1       0.7448466691E-04       1    6    1         0.2054434321E-02      0.2555926518E-02

    ------------------------------------------------
       NWT REQUIRED            6 OUTER ITERATIONS 
       AND A TOTAL OF          9 INNER ITERATIONS.
    ------------------------------------------------

 NO OUTPUT CONTROL FOR STRESS PERIOD   10   TIME STEP    1
 
 SOLVING FOR HEAD 
                                                   Max.-Head-Change                         Max.-Flux-Residual
  Residual-Control   Outer-Iter.   Inner-Iter.     Column Row Layer    Maximum-Head-Change  Column Row Layer    Maximum-Flux-Residual          L2-NORM 
          0                 1           2             4    7     1       0.3528842407E-01       4    7    1         0.1765493120E+01      0.5317143324E+01
          0                 2           2             1    6     1       0.8127330156E-02       1    6    1         0.2039075806E+00      0.5393212945E+00
          0                 3           2             1    6     1       0.2570676253E-02       1    6    1         0.6447060754E-01      0.1005851427E+00
          0                 4           1             1    6     1       0.8130845196E-03       1    6    1         0.2039462247E-01      0.2930044585E-01
          0                 5           1             1    6     1       0.2571686680E-03       1    6    1         0.6450350893E-02      0.9156313898E-02
          0                 6           1             1    6     1       0.8133863166E-04       1    6    1         0.2040188912E-02      0.2882739145E-02

    ------------------------------------------------
       NWT REQUIRED            6 OUTER ITERATIONS 
       AND A TOTAL OF          9 INNER ITERATIONS.
    ------------------------------------------------

 NO OUTPUT CONTROL FOR STRESS PERIOD   10   TIME STEP    2
 
 SOLVING FOR HEAD 
                                                   Max.-Head-Change                         Max.-Flux-Residual
  Residual-Control   Outer-Iter.   Inner-Iter.     Column Row Layer    Maximum-Head-Change  Column Row Layer    Maximum-Flux-Residual          L2-NORM 
          0                 1           2             4    7     1       0.3874676143E-01       4    7    1         0.1762486136E+01      0.5329651730E+01
          0                 2           2             6   15     1       0.9316453208E-02       6   15    1         0.2122062465E+00      0.5635435859E+00
          0                 3           2             6   15     1       0.2951522227E-02       6   15    1         0.6721351469E-01      0.1134566720E+00
          0                 4           1             6   15     1       0.9350646911E-03       6   15    1         0.2129526666E-01      0.3362937869E-01
          0                 5           1             6   15     1       0.2962352999E-03       6   15    1         0.6746353013E-02      0.1051620727E-01
          0                 6           1             6   15     1       0.9384941190E-04       6   15    1         0.2137308184E-02      0.3306342641E-02

    ------------------------------------------------
       NWT REQUIRED            6 OUTER ITERATIONS 
       AND A TOTAL OF          9 INNER ITERATIONS.
    ------------------------------------------------

 NO OUTPUT CONTROL FOR STRESS PERIOD   10   TIME STEP    3
 
 SOLVING FOR HEAD 
                                                   Max.-Head-Change                         Max.-Flux-Residual
  Residual-Control   Outer-Iter.   Inner-Iter.     Column Row Layer    Maximum-Head-Change  Column Row Layer    Maximum-Flux-Residual          L2-NORM 
          0                 1           2             4    7     1       0.4253679261E-01       4    7    1         0.1759232676E+01      0.5326732138E+01
          0                 2           2             6   15     1       0.9972351835E-02       6   15    1         0.2065712650E+00      0.5741201431E+00
          0                 3           2             6   15     1       0.3158358410E-02       6   15    1         0.6539749311E-01      0.1189082351E+00
          0                 4           1             6   15     1       0.1000288206E-02       6   15    1         0.2071475961E-01      0.3530019492E-01
          0                 5           1             6   15     1       0.3168022491E-03       6   15    1         0.6560340690E-02      0.1099345549E-01
          0                 6           1             6   15     1       0.1003346292E-03       6   15    1         0.2077757202E-02      0.3440408316E-02
          0                 7           1             6   15     1       0.3177700423E-04       6   15    1         0.6580449634E-03      0.1079332551E-02

    ------------------------------------------------
       NWT REQUIRED            7 OUTER ITERATIONS 
       AND A TOTAL OF         10 INNER ITERATIONS.
    ------------------------------------------------

 NO OUTPUT CONTROL FOR STRESS PERIOD   10   TIME STEP    4
 
 SOLVING FOR HEAD 
                                                   Max.-Head-Change                         Max.-Flux-Residual
  Residual-Control   Outer-Iter.   Inner-Iter.     Column Row Layer    Maximum-Head-Change  Column Row Layer    Maximum-Flux-Residual          L2-NORM 
          0                 1           2             4    7     1       0.4668844595E-01       4    7    1         0.1755682966E+01      0.5331556297E+01
          0                 2           2             1    5     1       0.1140471071E-01       1    5    1         0.2148516819E+00      0.5916159571E+00
          0                 3           2             1    5     1       0.3609991628E-02       1    5    1         0.6798293819E-01      0.1276735999E+00
          0                 4           2             1    5     1       0.1142606909E-02       1    5    1         0.2152152538E-01      0.3830097911E-01
          0                 5           1             1    5     1       0.3616266946E-03       1    5    1         0.6811421867E-02      0.1196783929E-01
          0                 6           1             1    5     1       0.1144456076E-03       1    5    1         0.2155763481E-02      0.3754772330E-02
          0                 7           1             1    5     1       0.3621712779E-04       1    5    1         0.6822318230E-03      0.1180177222E-02

    ------------------------------------------------
       NWT REQUIRED            7 OUTER ITERATIONS 
       AND A TOTAL OF         11 INNER ITERATIONS.
    ------------------------------------------------

 OUTPUT CONTROL FOR STRESS PERIOD   10   TIME STEP    5
    PRINT BUDGET
    SAVE BUDGET

  HEAD DEP BOUNDS   PERIOD   10   STEP     5
 BOUNDARY      1   LAYER   1   ROW    13   COL     1   RATE   -0.282308    
 BOUNDARY      2   LAYER   1   ROW    14   COL     9   RATE    0.206693    



 STREAM LISTING     PERIOD     10   STEP        5

 LAYER ROW COL. STREAM  RCH.  FLOW INTO     FLOW TO   FLOW OUT OF   OVRLND.     DIRECT     STREAM       STREAM     STREAM     STREAM   STREAMBED  STREAMBED
                SEG.NO.  NO.  STRM. RCH.    AQUIFER    STRM. RCH.    RUNOFF     PRECIP       ET          HEAD       DEPTH      WIDTH   CONDCTNC.   GRADIENT

   1    1    1     1     1    2.5000E+01  1.1774E+00   2.3823E+01  0.000E+00  0.000E+00  0.000E+00  1.09422E+03  1.171E+00  1.294E+01  5.825E-01  6.737E-01
   1    2    2     1     2    2.3823E+01  2.6573E+00   2.1165E+01  0.000E+00  0.000E+00  0.000E+00  1.08920E+03  1.142E+00  1.255E+01  8.784E-01  1.008E+00
   1    3    3     1     3    2.1165E+01  2.9266E+00   1.8239E+01  0.000E+00  0.000E+00  0.000E+00  1.08351E+03  1.095E+00  1.191E+01  7.146E-01  1.365E+00
   1    3    4     1     4    1.8239E+01  2.4871E+00   1.5752E+01  0.000E+00  0.000E+00  0.000E+00  1.07846E+03  1.049E+00  1.107E+01  6.142E-01  1.350E+00
   1    4    5     2     1    5.7517E+00  2.6728E+00   3.0789E+00  0.000E+00  0.000E+00  0.000E+00  1.07236E+03  4.267E-01  1.200E+01  7.800E-01  1.142E+00
   1    5    6     2     2    3.0789E+00  1.9638E+00   1.1151E+00  0.000E+00  0.000E+00  0.000E+00  1.06678E+03  2.730E-01  1.200E+01  6.000E-01  1.091E+00
   1    6    6     2     3    1.1151E+00  1.1151E+00   0.0000E+00  0.000E+00  0.000E+00  0.000E+00  1.06183E+03  4.204E-02  1.200E+01  6.000E-01  1.014E+00
   1    7    6     2     4    0.0000E+00  0.0000E+00   0.0000E+00  0.000E+00  0.000E+00  0.000E+00  1.05708E+03  0.000E+00  1.200E+01  6.000E-01  1.000E+00
   1    8    6     2     5    0.0000E+00  0.0000E+00   0.0000E+00  0.000E+00  0.000E+00  0.000E+00  1.05236E+03  0.000E+00  1.200E+01  6.000E-01  1.000E+00
   1    3    5     3     1    1.0000E+01  1.6440E+00   8.3560E+00  0.000E+00  0.000E+00  0.000E+00  1.07555E+03  1.909E+00  9.636E+00  7.227E-01  1.137E+00
   1    3    6     3     2    8.3560E+00  1.3965E+00   6.9595E+00  0.000E+00  0.000E+00  0.000E+00  1.07264E+03  1.727E+00  8.909E+00  6.682E-01  1.045E+00
   1    3    7     3     3    6.9595E+00  1.0109E+00   5.9486E+00  0.000E+00  0.000E+00  0.000E+00  1.06987E+03  1.555E+00  8.218E+00  5.547E-01  9.111E-01
   1    4    8     3     4    5.9486E+00  1.5739E+00   4.3747E+00  0.000E+00  0.000E+00  0.000E+00  1.06682E+03  1.364E+00  7.455E+00  6.709E-01  1.173E+00
   1    5    8     3     5    4.3747E+00  1.4909E+00   2.8838E+00  0.000E+00  0.000E+00  0.000E+00  1.06362E+03  1.164E+00  6.655E+00  4.991E-01  1.494E+00
   1    6    8     3     6    2.8838E+00  5.5980E-01   2.3240E+00  0.000E+00  0.000E+00  0.000E+00  1.06158E+03  1.036E+00  6.145E+00  1.844E-01  1.518E+00
   1    5   10     4     1    1.0000E+01  9.0525E-01   9.0947E+00  0.000E+00  0.000E+00  0.000E+00  1.07835E+03  6.210E-01  1.000E+01  2.500E-01  1.207E+00
   1    5    9     4     2    9.0947E+00  1.7835E+00   7.3113E+00  0.000E+00  0.000E+00  0.000E+00  1.07148E+03  5.670E-01  1.000E+01  5.000E-01  1.189E+00
   1    6    8     4     3    7.3113E+00  1.2257E+00   6.0855E+00  0.000E+00  0.000E+00  0.000E+00  1.06368E+03  5.021E-01  1.000E+01  3.500E-01  1.167E+00
   1    6    8     5     1    8.4095E+00  2.8085E-01   8.1287E+00  0.000E+00  0.000E+00  0.000E+00  1.05863E+03  6.284E-01  1.350E+01  5.399E-01  1.734E-01
   1    7    7     5     2    8.1287E+00  1.2687E+00   6.8600E+00  0.000E+00  0.000E+00  0.000E+00  1.05411E+03  6.071E-01  1.272E+01  6.362E-01  6.647E-01
   1    8    7     5     3    6.8600E+00  9.4070E-01   5.9193E+00  0.000E+00  0.000E+00  0.000E+00  1.04982E+03  5.742E-01  1.156E+01  4.047E-01  7.748E-01
   1    8    6     5     4    5.9193E+00  8.7870E-01   5.0406E+00  0.000E+00  0.000E+00  0.000E+00  1.04679E+03  5.441E-01  1.055E+01  2.636E-01  1.111E+00
   1    9    6     6     1    5.0406E+00  1.8490E+00   3.1916E+00  0.000E+00  0.000E+00  0.000E+00  1.04314E+03  4.137E-01  1.200E+01  6.000E-01  1.027E+00
   1   10    7     6     2    3.1916E+00  1.1585E+00   2.0330E+00  0.000E+00  0.000E+00  0.000E+00  1.03850E+03  3.149E-01  1.200E+01  6.000E-01  6.436E-01
   1   11    7     6     3    2.0330E+00  8.2438E-01   1.2086E+00  0.000E+00  0.000E+00  0.000E+00  1.03387E+03  2.365E-01  1.200E+01  6.000E-01  4.580E-01
   1   12    7     6     4    1.2086E+00  4.1346E-01   7.9518E-01  0.000E+00  0.000E+00  0.000E+00  1.02927E+03  1.772E-01  1.200E+01  6.000E-01  2.297E-01
   1   13    7     6     5    7.9518E-01 -7.9060E-01   1.5858E+00  0.000E+00  0.000E+00  0.000E+00  1.02611E+03  1.965E-01  1.200E+01  2.400E-01 -1.098E+00
   1   14    9     7     1    1.5000E+02  1.7152E+00   1.4828E+02  0.000E+00  0.000E+00  0.000E+00  1.03987E+03  2.287E+00  5.529E+01  5.593E+00  1.022E-01
   1   13    8     7     2    1.4828E+02  1.6995E+00   1.4659E+02  0.000E+00  0.000E+00  0.000E+00  1.03478E+03  2.278E+00  5.525E+01  6.147E+00  9.216E-02
   1   13    7     7     3    1.4659E+02  1.6100E+00   1.4498E+02  0.000E+00  0.000E+00  0.000E+00  1.02969E+03  2.269E+00  5.521E+01  5.584E+00  9.612E-02
   1   13    6     8     1    1.4656E+02  4.3606E-01   1.4613E+02  0.000E+00  0.000E+00  0.000E+00  1.02467E+03  2.791E+00  4.047E+01  4.124E+00  3.525E-02
   1   13    5     8     2    1.4613E+02 -2.7514E-01   1.4640E+02  0.000E+00  0.000E+00  0.000E+00  1.01842E+03  2.790E+00  4.046E+01  4.123E+00 -2.224E-02
   1   13    4     8     3    1.4640E+02 -1.0991E+00   1.4750E+02  0.000E+00  0.000E+00  0.000E+00  1.01217E+03  2.795E+00  4.053E+01  4.130E+00 -8.871E-02
   1   13    3     8     4    1.4750E+02 -1.7769E+00   1.4928E+02  0.000E+00  0.000E+00  0.000E+00  1.00593E+03  2.805E+00  4.068E+01  4.145E+00 -1.429E-01
   1   13    2     8     5    1.4928E+02 -1.9124E+00   1.5119E+02  0.000E+00  0.000E+00  0.000E+00  9.99693E+02  2.818E+00  4.087E+01  4.165E+00 -1.531E-01
   1   13    1     8     6    1.5119E+02 -1.8140E+00   1.5300E+02  0.000E+00  0.000E+00  0.000E+00  9.94707E+02  2.832E+00  4.106E+01  2.510E+00 -2.409E-01



 UBDSV3 SAVING "           GW ET" ON UNIT  61 AT TIME STEP 5, STRESS PERIOD 10
 UBDSV3 SAVING "    UZF RECHARGE" ON UNIT  61 AT TIME STEP 5, STRESS PERIOD 10
 UBDSV3 SAVING " SURFACE LEAKAGE" ON UNIT  61 AT TIME STEP 5, STRESS PERIOD 10
 UBDSV3 SAVING "       HORT+DUNN" ON UNIT  61 AT TIME STEP 5, STRESS PERIOD 10
 UBDSV3 SAVING "  STORAGE CHANGE" ON UNIT  61 AT TIME STEP 5, STRESS PERIOD 10


UNSATURATED ZONE PACKAGE VOLUMETRIC BUDGET FOR  TIME STEP     5 STRESS PERIOD   10
  ------------------------------------------------------------------------------



     CUMULATIVE VOLUMES      L**3       RATES FOR THIS TIME STEP      L**3/T
     ------------------                 ------------------------

           IN:                                      IN:
           ---                                      ---
        INFILTRATION =  1456258651.1899          INFILTRATION =          16.9500

          OUT:                                     OUT:
          ----                                     ----
              UZF ET =  1788905917.4482                UZF ET =          57.1406
        UZF RECHARGE =   314481057.6491          UZF RECHARGE =          14.4618

            IN - OUT =  -647128323.9074              IN - OUT =         -54.6524

          STORAGE:                                 STORAGE:
          --------                                 --------
      STORAGE CHANGE =  -646889850.3474        STORAGE CHANGE =         -54.6524

 PERCENT DISCREPANCY IS DIFFERENCE BETWEEN IN-OUT MINUS CHANGE IN STORAGE
 DIVIDED BY THE AVERAGE OF IN AND OUT TIMES 100

 PERCENT DISCREPANCY =          -0.00     PERCENT DISCREPANCY =           0.00






1
  VOLUMETRIC BUDGET FOR ENTIRE MODEL AT END OF TIME STEP    5, STRESS PERIOD  10
  ------------------------------------------------------------------------------

     CUMULATIVE VOLUMES      L**3       RATES FOR THIS TIME STEP      L**3/T
     ------------------                 ------------------------

           IN:                                      IN:
           ---                                      ---
             STORAGE     =    73953816.0000               STORAGE     =           1.3131
       CONSTANT HEAD     =           0.0000         CONSTANT HEAD     =           0.0000
               WELLS     =           0.0000                 WELLS     =           0.0000
     HEAD DEP BOUNDS     =     4993462.5000       HEAD DEP BOUNDS     =           0.2067
      STREAM LEAKAGE     =   954236928.0000        STREAM LEAKAGE     =          39.6655
        UZF RECHARGE     =   314481024.0000          UZF RECHARGE     =          14.4618
               GW ET     =           0.0000                 GW ET     =           0.0000
     SURFACE LEAKAGE     =           0.0000       SURFACE LEAKAGE     =           0.0000

                TOTAL IN =  1347665152.0000                  TOTAL IN =          55.6471

          OUT:                                     OUT:
          ----                                     ----
             STORAGE     =   366400096.0000               STORAGE     =          27.5693
       CONSTANT HEAD     =           0.0000         CONSTANT HEAD     =           0.0000
               WELLS     =   315359968.0000                 WELLS     =           0.0000
     HEAD DEP BOUNDS     =     6838581.0000       HEAD DEP BOUNDS     =           0.2823
      STREAM LEAKAGE     =   195076416.0000        STREAM LEAKAGE     =           7.6682
        UZF RECHARGE     =           0.0000          UZF RECHARGE     =           0.0000
               GW ET     =   463981088.0000                 GW ET     =          20.1265
     SURFACE LEAKAGE     =           0.0000       SURFACE LEAKAGE     =           0.0000

               TOTAL OUT =  1347656192.0000                 TOTAL OUT =          55.6464

                IN - OUT =        8960.0000                  IN - OUT =       7.5531E-04

     PERCENT DISCREPANCY =           0.00         PERCENT DISCREPANCY =           0.00






         TIME SUMMARY AT END OF TIME STEP    5 IN STRESS PERIOD   10
                    SECONDS     MINUTES      HOURS       DAYS        YEARS
                    -----------------------------------------------------------
   TIME STEP LENGTH 1.21100E+05  2018.3      33.639      1.4016     3.83743E-03
 STRESS PERIOD TIME 5.04972E+05  8416.2      140.27      5.8446     1.60016E-02
         TOTAL TIME 2.41570E+07 4.02616E+05  6710.3      279.59     0.76549    
1
 
 SOLVING FOR HEAD 
                                                   Max.-Head-Change                         Max.-Flux-Residual
  Residual-Control   Outer-Iter.   Inner-Iter.     Column Row Layer    Maximum-Head-Change  Column Row Layer    Maximum-Flux-Residual          L2-NORM 
          0                 1           2             4    7     1       0.5123414677E-01       4    7    1         0.1751793242E+01      0.5311425646E+01
          0                 2           2             1    5     1       0.1248763575E-01       1    5    1         0.2139493917E+00      0.5886458303E+00
          0                 3           2             1    5     1       0.3951359556E-02       1    5    1         0.6766275007E-01      0.1269736612E+00
          0                 4           2             1    5     1       0.1250194923E-02       1    5    1         0.2141353843E-01      0.3809335865E-01
          0                 5           1             1    5     1       0.3955293641E-03       1    5    1         0.6774632848E-02      0.1190093218E-01
          0                 6           1             1    5     1       0.1251272518E-03       1    5    1         0.2143324736E-02      0.3732710597E-02
          0                 7           1             1    5     1       0.3958208400E-04       1    5    1         0.6780348122E-03      0.1172707474E-02

    ------------------------------------------------
       NWT REQUIRED            7 OUTER ITERATIONS 
       AND A TOTAL OF         11 INNER ITERATIONS.
    ------------------------------------------------

 NO OUTPUT CONTROL FOR STRESS PERIOD   10   TIME STEP    6
 
 SOLVING FOR HEAD 
                                                   Max.-Head-Change                         Max.-Flux-Residual
  Residual-Control   Outer-Iter.   Inner-Iter.     Column Row Layer    Maximum-Head-Change  Column Row Layer    Maximum-Flux-Residual          L2-NORM 
          0                 1           2             4    7     1       0.5620873674E-01       4    7    1         0.1747524494E+01      0.5284471194E+01
          0                 2           2             1    5     1       0.1366679030E-01       1    5    1         0.2129362897E+00      0.5789870804E+00
          0                 3           2             1    5     1       0.4322552446E-02       1    5    1         0.6731273611E-01      0.1223971019E+00
          0                 4           2             1    5     1       0.1367000951E-02       1    5    1         0.2129330508E-01      0.3633652835E-01
          0                 5           1             1    5     1       0.4322731797E-03       1    5    1         0.6733404780E-02      0.1126162232E-01
          0                 6           1             1    5     1       0.1366821281E-03       1    5    1         0.2129234880E-02      0.3505137737E-02
          0                 7           1             1    5     1       0.4321465277E-04       1    5    1         0.6732336794E-03      0.1092912824E-02

    ------------------------------------------------
       NWT REQUIRED            7 OUTER ITERATIONS 
       AND A TOTAL OF         11 INNER ITERATIONS.
    ------------------------------------------------

 NO OUTPUT CONTROL FOR STRESS PERIOD   10   TIME STEP    7
 
 SOLVING FOR HEAD 
                                                   Max.-Head-Change                         Max.-Flux-Residual
  Residual-Control   Outer-Iter.   Inner-Iter.     Column Row Layer    Maximum-Head-Change  Column Row Layer    Maximum-Flux-Residual          L2-NORM 
          0                 1           2             4    7     1       0.6164973140E-01       4    7    1         0.1742834896E+01      0.5251890039E+01
          0                 2           2             1    5     1       0.1380375657E-01       1    5    1         0.1955945351E+00      0.5619724756E+00
          0                 3           2             1    5     1       0.4282264822E-02       1    5    1         0.6064873771E-01      0.1130548529E+00
          0                 4           2             1    5     1       0.1328182276E-02       1    5    1         0.1881770707E-01      0.3267065442E-01
          0                 5           1             1    5     1       0.4118741005E-03       1    5    1         0.5835784317E-02      0.9942524642E-02
          0                 6           1             1    5     1       0.1277038102E-03       1    5    1         0.1809663405E-02      0.3046284715E-02
          0                 7           1             1    5     1       0.3958981418E-04       1    5    1         0.5610713668E-03      0.9366347723E-03

    ------------------------------------------------
       NWT REQUIRED            7 OUTER ITERATIONS 
       AND A TOTAL OF         11 INNER ITERATIONS.
    ------------------------------------------------

 NO OUTPUT CONTROL FOR STRESS PERIOD   10   TIME STEP    8
 
 SOLVING FOR HEAD 
                                                   Max.-Head-Change                         Max.-Flux-Residual
  Residual-Control   Outer-Iter.   Inner-Iter.     Column Row Layer    Maximum-Head-Change  Column Row Layer    Maximum-Flux-Residual          L2-NORM 
          0                 1           2             4    7     1       0.6759716131E-01       4    7    1         0.1737682105E+01      0.5250618703E+01
          0                 2           2             5   15     1       0.1547687547E-01       5   15    1         0.1993314601E+00      0.5820467545E+00
          0                 3           2             5   15     1       0.4891263289E-02       5   15    1         0.6299380931E-01      0.1243809383E+00
          0                 4           2             5   15     1       0.1545759499E-02       5   15    1         0.1990864545E-01      0.3677834438E-01
          0                 5           1             5   15     1       0.4884777697E-03       5   15    1         0.6291521430E-02      0.1133394035E-01
          0                 6           1             5   15     1       0.1543591560E-03       5   15    1         0.1988177549E-02      0.3509482534E-02
          0                 7           1             5   15     1       0.4877664642E-04       5   15    1         0.6282594463E-03      0.1089264564E-02

    ------------------------------------------------
       NWT REQUIRED            7 OUTER ITERATIONS 
       AND A TOTAL OF         11 INNER ITERATIONS.
    ------------------------------------------------

 NO OUTPUT CONTROL FOR STRESS PERIOD   10   TIME STEP    9
 
 SOLVING FOR HEAD 
                                                   Max.-Head-Change                         Max.-Flux-Residual
  Residual-Control   Outer-Iter.   Inner-Iter.     Column Row Layer    Maximum-Head-Change  Column Row Layer    Maximum-Flux-Residual          L2-NORM 
          0                 1           2             4    7     1       0.7409415008E-01       4    7    1         0.1732017044E+01      0.5255906361E+01
          0                 2           2             5   15     1       0.1744631601E-01       5   15    1         0.2044161847E+00      0.6074170594E+00
          0                 3           2             5   15     1       0.5510210194E-02       5   15    1         0.6453964760E-01      0.1366512034E+00
          0                 4           2             5   15     1       0.1740264469E-02       5   15    1         0.2038641592E-01      0.4088622081E-01
          0                 5           1             5   15     1       0.5495986339E-03       5   15    1         0.6438239381E-02      0.1265158176E-01
          0                 6           1             5   15     1       0.1735663135E-03       5   15    1         0.2033288321E-02      0.3930820592E-02
          0                 7           1             5   15     1       0.5481376175E-04       5   15    1         0.6421182117E-03      0.1224374419E-02

    ------------------------------------------------
       NWT REQUIRED            7 OUTER ITERATIONS 
       AND A TOTAL OF         11 INNER ITERATIONS.
    ------------------------------------------------

 OUTPUT CONTROL FOR STRESS PERIOD   10   TIME STEP   10
    PRINT BUDGET
    SAVE BUDGET

  HEAD DEP BOUNDS   PERIOD   10   STEP    10
 BOUNDARY      1   LAYER   1   ROW    13   COL     1   RATE   -0.282266    
 BOUNDARY      2   LAYER   1   ROW    14   COL     9   RATE    0.206696    



 STREAM LISTING     PERIOD     10   STEP       10

 LAYER ROW COL. STREAM  RCH.  FLOW INTO     FLOW TO   FLOW OUT OF   OVRLND.     DIRECT     STREAM       STREAM     STREAM     STREAM   STREAMBED  STREAMBED
                SEG.NO.  NO.  STRM. RCH.    AQUIFER    STRM. RCH.    RUNOFF     PRECIP       ET          HEAD       DEPTH      WIDTH   CONDCTNC.   GRADIENT

   1    1    1     1     1    2.5000E+01  1.1787E+00   2.3821E+01  0.000E+00  0.000E+00  0.000E+00  1.09422E+03  1.171E+00  1.294E+01  5.825E-01  6.745E-01
   1    2    2     1     2    2.3821E+01  2.6572E+00   2.1164E+01  0.000E+00  0.000E+00  0.000E+00  1.08920E+03  1.141E+00  1.255E+01  8.784E-01  1.008E+00
   1    3    3     1     3    2.1164E+01  2.9265E+00   1.8238E+01  0.000E+00  0.000E+00  0.000E+00  1.08351E+03  1.095E+00  1.191E+01  7.146E-01  1.365E+00
   1    3    4     1     4    1.8238E+01  2.4870E+00   1.5751E+01  0.000E+00  0.000E+00  0.000E+00  1.07846E+03  1.049E+00  1.107E+01  6.142E-01  1.350E+00
   1    4    5     2     1    5.7506E+00  2.6728E+00   3.0779E+00  0.000E+00  0.000E+00  0.000E+00  1.07236E+03  4.266E-01  1.200E+01  7.800E-01  1.142E+00
   1    5    6     2     2    3.0779E+00  1.9637E+00   1.1141E+00  0.000E+00  0.000E+00  0.000E+00  1.06678E+03  2.729E-01  1.200E+01  6.000E-01  1.091E+00
   1    6    6     2     3    1.1141E+00  1.1141E+00   0.0000E+00  0.000E+00  0.000E+00  0.000E+00  1.06183E+03  4.202E-02  1.200E+01  6.000E-01  1.014E+00
   1    7    6     2     4    0.0000E+00  0.0000E+00   0.0000E+00  0.000E+00  0.000E+00  0.000E+00  1.05708E+03  0.000E+00  1.200E+01  6.000E-01  1.000E+00
   1    8    6     2     5    0.0000E+00  0.0000E+00   0.0000E+00  0.000E+00  0.000E+00  0.000E+00  1.05236E+03  0.000E+00  1.200E+01  6.000E-01  1.000E+00
   1    3    5     3     1    1.0000E+01  1.6874E+00   8.3126E+00  0.000E+00  0.000E+00  0.000E+00  1.07555E+03  1.909E+00  9.636E+00  7.227E-01  1.167E+00
   1    3    6     3     2    8.3126E+00  1.4480E+00   6.8646E+00  0.000E+00  0.000E+00  0.000E+00  1.07264E+03  1.727E+00  8.909E+00  6.682E-01  1.084E+00
   1    3    7     3     3    6.8646E+00  1.0316E+00   5.8330E+00  0.000E+00  0.000E+00  0.000E+00  1.06987E+03  1.555E+00  8.218E+00  5.547E-01  9.298E-01
   1    4    8     3     4    5.8330E+00  1.5801E+00   4.2529E+00  0.000E+00  0.000E+00  0.000E+00  1.06682E+03  1.364E+00  7.455E+00  6.709E-01  1.178E+00
   1    5    8     3     5    4.2529E+00  1.4893E+00   2.7636E+00  0.000E+00  0.000E+00  0.000E+00  1.06362E+03  1.164E+00  6.655E+00  4.991E-01  1.492E+00
   1    6    8     3     6    2.7636E+00  5.5980E-01   2.2038E+00  0.000E+00  0.000E+00  0.000E+00  1.06158E+03  1.036E+00  6.145E+00  1.844E-01  1.518E+00
   1    5   10     4     1    1.0000E+01  9.0525E-01   9.0947E+00  0.000E+00  0.000E+00  0.000E+00  1.07835E+03  6.210E-01  1.000E+01  2.500E-01  1.207E+00
   1    5    9     4     2    9.0947E+00  1.7835E+00   7.3113E+00  0.000E+00  0.000E+00  0.000E+00  1.07148E+03  5.670E-01  1.000E+01  5.000E-01  1.189E+00
   1    6    8     4     3    7.3113E+00  1.2257E+00   6.0855E+00  0.000E+00  0.000E+00  0.000E+00  1.06368E+03  5.021E-01  1.000E+01  3.500E-01  1.167E+00
   1    6    8     5     1    8.2893E+00  2.7617E-01   8.0132E+00  0.000E+00  0.000E+00  0.000E+00  1.05863E+03  6.252E-01  1.338E+01  5.353E-01  1.720E-01
   1    7    7     5     2    8.0132E+00  1.2585E+00   6.7547E+00  0.000E+00  0.000E+00  0.000E+00  1.05410E+03  6.040E-01  1.261E+01  6.306E-01  6.653E-01
   1    8    7     5     3    6.7547E+00  9.3119E-01   5.8235E+00  0.000E+00  0.000E+00  0.000E+00  1.04982E+03  5.710E-01  1.145E+01  4.009E-01  7.743E-01
   1    8    6     5     4    5.8235E+00  8.6341E-01   4.9601E+00  0.000E+00  0.000E+00  0.000E+00  1.04679E+03  5.410E-01  1.044E+01  2.611E-01  1.102E+00
   1    9    6     6     1    4.9601E+00  1.8354E+00   3.1247E+00  0.000E+00  0.000E+00  0.000E+00  1.04314E+03  4.092E-01  1.200E+01  6.000E-01  1.020E+00
   1   10    7     6     2    3.1247E+00  1.1530E+00   1.9716E+00  0.000E+00  0.000E+00  0.000E+00  1.03849E+03  3.102E-01  1.200E+01  6.000E-01  6.406E-01
   1   11    7     6     3    1.9716E+00  8.1720E-01   1.1544E+00  0.000E+00  0.000E+00  0.000E+00  1.03387E+03  2.314E-01  1.200E+01  6.000E-01  4.540E-01
   1   12    7     6     4    1.1544E+00  4.0603E-01   7.4838E-01  0.000E+00  0.000E+00  0.000E+00  1.02926E+03  1.718E-01  1.200E+01  6.000E-01  2.256E-01
   1   13    7     6     5    7.4838E-01 -7.9154E-01   1.5399E+00  0.000E+00  0.000E+00  0.000E+00  1.02610E+03  1.919E-01  1.200E+01  2.400E-01 -1.099E+00
   1   14    9     7     1    1.5000E+02  1.7156E+00   1.4828E+02  0.000E+00  0.000E+00  0.000E+00  1.03987E+03  2.287E+00  5.529E+01  5.593E+00  1.023E-01
   1   13    8     7     2    1.4828E+02  1.6993E+00   1.4659E+02  0.000E+00  0.000E+00  0.000E+00  1.03478E+03  2.278E+00  5.525E+01  6.147E+00  9.215E-02
   1   13    7     7     3    1.4659E+02  1.6140E+00   1.4497E+02  0.000E+00  0.000E+00  0.000E+00  1.02969E+03  2.269E+00  5.521E+01  5.584E+00  9.635E-02
   1   13    6     8     1    1.4651E+02  4.1707E-01   1.4609E+02  0.000E+00  0.000E+00  0.000E+00  1.02467E+03  2.791E+00  4.046E+01  4.123E+00  3.372E-02
   1   13    5     8     2    1.4609E+02 -2.5614E-01   1.4635E+02  0.000E+00  0.000E+00  0.000E+00  1.01842E+03  2.790E+00  4.046E+01  4.123E+00 -2.071E-02
   1   13    4     8     3    1.4635E+02 -1.0770E+00   1.4743E+02  0.000E+00  0.000E+00  0.000E+00  1.01217E+03  2.795E+00  4.052E+01  4.130E+00 -8.693E-02
   1   13    3     8     4    1.4743E+02 -1.7503E+00   1.4918E+02  0.000E+00  0.000E+00  0.000E+00  1.00593E+03  2.805E+00  4.067E+01  4.144E+00 -1.408E-01
   1   13    2     8     5    1.4918E+02 -1.9125E+00   1.5109E+02  0.000E+00  0.000E+00  0.000E+00  9.99693E+02  2.818E+00  4.086E+01  4.164E+00 -1.531E-01
   1   13    1     8     6    1.5109E+02 -1.8126E+00   1.5290E+02  0.000E+00  0.000E+00  0.000E+00  9.94706E+02  2.831E+00  4.105E+01  2.510E+00 -2.407E-01



 UBDSV3 SAVING "           GW ET" ON UNIT  61 AT TIME STEP 10, STRESS PERIOD 10
 UBDSV3 SAVING "    UZF RECHARGE" ON UNIT  61 AT TIME STEP 10, STRESS PERIOD 10
 UBDSV3 SAVING " SURFACE LEAKAGE" ON UNIT  61 AT TIME STEP 10, STRESS PERIOD 10
 UBDSV3 SAVING "       HORT+DUNN" ON UNIT  61 AT TIME STEP 10, STRESS PERIOD 10
 UBDSV3 SAVING "  STORAGE CHANGE" ON UNIT  61 AT TIME STEP 10, STRESS PERIOD 10


UNSATURATED ZONE PACKAGE VOLUMETRIC BUDGET FOR  TIME STEP    10 STRESS PERIOD   10
  ------------------------------------------------------------------------------



     CUMULATIVE VOLUMES      L**3       RATES FOR THIS TIME STEP      L**3/T
     ------------------                 ------------------------

           IN:                                      IN:
           ---                                      ---
        INFILTRATION =  1470043439.0542          INFILTRATION =          16.9500

          OUT:                                     OUT:
          ----                                     ----
              UZF ET =  1834963998.0791                UZF ET =          56.2415
        UZF RECHARGE =   326266230.7765          UZF RECHARGE =          15.3966

            IN - OUT =  -691186789.8014              IN - OUT =         -54.6880

          STORAGE:                                 STORAGE:
          --------                                 --------
      STORAGE CHANGE =  -690947083.8811        STORAGE CHANGE =         -54.6824

 PERCENT DISCREPANCY IS DIFFERENCE BETWEEN IN-OUT MINUS CHANGE IN STORAGE
 DIVIDED BY THE AVERAGE OF IN AND OUT TIMES 100

 PERCENT DISCREPANCY =          -0.00     PERCENT DISCREPANCY =          -0.01






1
  VOLUMETRIC BUDGET FOR ENTIRE MODEL AT END OF TIME STEP   10, STRESS PERIOD  10
  ------------------------------------------------------------------------------

     CUMULATIVE VOLUMES      L**3       RATES FOR THIS TIME STEP      L**3/T
     ------------------                 ------------------------

           IN:                                      IN:
           ---                                      ---
             STORAGE     =    74978736.0000               STORAGE     =           1.2141
       CONSTANT HEAD     =           0.0000         CONSTANT HEAD     =           0.0000
               WELLS     =           0.0000                 WELLS     =           0.0000
     HEAD DEP BOUNDS     =     5161558.5000       HEAD DEP BOUNDS     =           0.2067
      STREAM LEAKAGE     =   986517120.0000        STREAM LEAKAGE     =          39.6975
        UZF RECHARGE     =   326266208.0000          UZF RECHARGE     =          15.3966
               GW ET     =           0.0000                 GW ET     =           0.0000
     SURFACE LEAKAGE     =           0.0000       SURFACE LEAKAGE     =           0.0000

                TOTAL IN =  1392923648.0000                  TOTAL IN =          56.5149

          OUT:                                     OUT:
          ----                                     ----
             STORAGE     =   388859648.0000               STORAGE     =          28.4795
       CONSTANT HEAD     =           0.0000         CONSTANT HEAD     =           0.0000
               WELLS     =   315359968.0000                 WELLS     =           0.0000
     HEAD DEP BOUNDS     =     7068146.5000       HEAD DEP BOUNDS     =           0.2823
      STREAM LEAKAGE     =   201276608.0000        STREAM LEAKAGE     =           7.6000
        UZF RECHARGE     =           0.0000          UZF RECHARGE     =           0.0000
               GW ET     =   480349568.0000                 GW ET     =          20.1521
     SURFACE LEAKAGE     =           0.0000       SURFACE LEAKAGE     =           0.0000

               TOTAL OUT =  1392913920.0000                 TOTAL OUT =          56.5139

                IN - OUT =        9728.0000                  IN - OUT =       9.8038E-04

     PERCENT DISCREPANCY =           0.00         PERCENT DISCREPANCY =           0.00






         TIME SUMMARY AT END OF TIME STEP   10 IN STRESS PERIOD   10
                    SECONDS     MINUTES      HOURS       DAYS        YEARS
                    -----------------------------------------------------------
   TIME STEP LENGTH 1.95033E+05  3250.6      54.176      2.2573     6.18023E-03
 STRESS PERIOD TIME 1.31823E+06  21971.      366.18      15.257     4.17723E-02
         TOTAL TIME 2.49702E+07 4.16170E+05  6936.2      289.01     0.79126    
1
 
 SOLVING FOR HEAD 
                                                   Max.-Head-Change                         Max.-Flux-Residual
  Residual-Control   Outer-Iter.   Inner-Iter.     Column Row Layer    Maximum-Head-Change  Column Row Layer    Maximum-Flux-Residual          L2-NORM 
          0                 1           2             4    7     1       0.8118678718E-01       4    7    1         0.1725802959E+01      0.5228335741E+01
          0                 2           2             1    7     1       0.1872429358E-01       1    7    1         0.1993841879E+00      0.6033045186E+00
          0                 3           2             1    7     1       0.5807202122E-02       1    7    1         0.6180418775E-01      0.1346353108E+00
          0                 4           2             1    7     1       0.1800923099E-02       1    7    1         0.1917149154E-01      0.3989757219E-01
          0                 5           1             1    7     1       0.5584733658E-03       1    7    1         0.5944961276E-02      0.1222532974E-01
          0                 6           1             1    7     1       0.1731783608E-03       1    7    1         0.1843575757E-02      0.3760549035E-02
          0                 7           1             1    7     1       0.5369955482E-04       1    7    1         0.5716700884E-03      0.1159996925E-02

    ------------------------------------------------
       NWT REQUIRED            7 OUTER ITERATIONS 
       AND A TOTAL OF         11 INNER ITERATIONS.
    ------------------------------------------------

 NO OUTPUT CONTROL FOR STRESS PERIOD   10   TIME STEP   11
 
 SOLVING FOR HEAD 
                                                   Max.-Head-Change                         Max.-Flux-Residual
  Residual-Control   Outer-Iter.   Inner-Iter.     Column Row Layer    Maximum-Head-Change  Column Row Layer    Maximum-Flux-Residual          L2-NORM 
          0                 1           2             4    7     1       0.8892297633E-01       4    7    1         0.1718988465E+01      0.5192200847E+01
          0                 2           2             1    7     1       0.2003672005E-01       1    7    1         0.1940357887E+00      0.5954888161E+00
          0                 3           2             1    7     1       0.6211517783E-02       1    7    1         0.6011650754E-01      0.1318995380E+00
          0                 4           2             1    7     1       0.1925439597E-02       1    7    1         0.1864015586E-01      0.3894579173E-01
          0                 5           1             1    7     1       0.5968123109E-03       1    7    1         0.5777529382E-02      0.1189901202E-01
          0                 6           1             1    7     1       0.1849809724E-03       1    7    1         0.1790832891E-02      0.3650254712E-02
          0                 7           1             4   15     1       0.6915772138E-04       1    7    1         0.5550559459E-03      0.1123721081E-02

    ------------------------------------------------
       NWT REQUIRED            7 OUTER ITERATIONS 
       AND A TOTAL OF         11 INNER ITERATIONS.
    ------------------------------------------------

 NO OUTPUT CONTROL FOR STRESS PERIOD   10   TIME STEP   12
 
 SOLVING FOR HEAD 
                                                   Max.-Head-Change                         Max.-Flux-Residual
  Residual-Control   Outer-Iter.   Inner-Iter.     Column Row Layer    Maximum-Head-Change  Column Row Layer    Maximum-Flux-Residual          L2-NORM 
          0                 1           2             4    7     1       0.9735317800E-01       4    7    1         0.1711507921E+01      0.5137901403E+01
          0                 2           2             1    7     1       0.2093454133E-01       1    7    1         0.1845502882E+00      0.5720211081E+00
          0                 3           2             1    7     1       0.6409920020E-02       1    7    1         0.5647940482E-01      0.1216486392E+00
          0                 4           2             1    7     1       0.1962163243E-02       1    7    1         0.1729619010E-01      0.3537078464E-01
          0                 5           1             1    7     1       0.6005325874E-03       1    7    1         0.5293894914E-02      0.1070619951E-01
          0                 6           1             1    7     1       0.1837684370E-03       1    7    1         0.1620202268E-02      0.3258653212E-02
          0                 7           1             4   15     1       0.8606148824E-04       1    7    1         0.4957744623E-03      0.9974696627E-03

    ------------------------------------------------
       NWT REQUIRED            7 OUTER ITERATIONS 
       AND A TOTAL OF         11 INNER ITERATIONS.
    ------------------------------------------------

 NO OUTPUT CONTROL FOR STRESS PERIOD   10   TIME STEP   13
 
 SOLVING FOR HEAD 
                                                   Max.-Head-Change                         Max.-Flux-Residual
  Residual-Control   Outer-Iter.   Inner-Iter.     Column Row Layer    Maximum-Head-Change  Column Row Layer    Maximum-Flux-Residual          L2-NORM 
          0                 1           2             4    7     1       0.1065295164E+00       4    7    1         0.1703289119E+01      0.5075902864E+01
          0                 2           2             1    7     1       0.2281550432E-01       1    7    1         0.1829446820E+00      0.5438076414E+00
          0                 3           2             1    7     1       0.6980313660E-02       1    7    1         0.5594845844E-01      0.1090569444E+00
          0                 4           2             1    7     1       0.2135008140E-02       1    7    1         0.1711954764E-01      0.3103698016E-01
          0                 5           1             1    7     1       0.6528797400E-03       1    7    1         0.5235506203E-02      0.9288446438E-02
          0                 6           1             1    7     1       0.1996144075E-03       1    7    1         0.1600964797E-02      0.2802593089E-02
          0                 7           1             4   15     1       0.1028526104E-03       1    7    1         0.4894625340E-03      0.8535752654E-03
          0                 8           1             4   15     1       0.6991487003E-04       1    7    1         0.1496233747E-03      0.2691178028E-03

    ------------------------------------------------
       NWT REQUIRED            8 OUTER ITERATIONS 
       AND A TOTAL OF         12 INNER ITERATIONS.
    ------------------------------------------------

 NO OUTPUT CONTROL FOR STRESS PERIOD   10   TIME STEP   14
 
 SOLVING FOR HEAD 
                                                   Max.-Head-Change                         Max.-Flux-Residual
  Residual-Control   Outer-Iter.   Inner-Iter.     Column Row Layer    Maximum-Head-Change  Column Row Layer    Maximum-Flux-Residual          L2-NORM 
          0                 1           2             4    7     1       0.1165061813E+00       4    7    1         0.1694252270E+01      0.5053988463E+01
          0                 2           2             4   15     1       0.2610648957E-01       1    7    1         0.1811838836E+00      0.5521027059E+00
          0                 3           2             4   15     1       0.2005299468E-01       1    7    1         0.5535823773E-01      0.1151886266E+00
          0                 4           2             4   15     1       0.1409087172E-01       4   15    2         0.1796871951E-01      0.3621374905E-01
          0                 5           2             4   15     1       0.9579169467E-02       4   15    1         0.9811678813E-02      0.1470417898E-01
          0                 6           2             4   15     1       0.6425523696E-02       4   15    1         0.6646656464E-02      0.7853639673E-02
          0                 7           2             4   15     1       0.4286090944E-02       4   15    1         0.4451939592E-02      0.4877066684E-02
          0                 8           2             4   15     1       0.2852235645E-02       4   15    1         0.2967796721E-02      0.3178567034E-02
          0                 9           2             4   15     1       0.1896141595E-02       4   15    1         0.1974441033E-02      0.2099182800E-02
          0                10           2             4   15     1       0.1259994247E-02       4   15    1         0.1312444270E-02      0.1391661507E-02
                                                   Max.-Head-Change                         Max.-Flux-Residual
  Residual-Control   Outer-Iter.   Inner-Iter.     Column Row Layer    Maximum-Head-Change  Column Row Layer    Maximum-Flux-Residual          L2-NORM 
          0                11           1             4   15     1       0.8371167683E-03       4   15    1         0.8720831052E-03      0.9237635107E-03
          0                12           1             4   15     1       0.5561207488E-03       4   15    1         0.5793839538E-03      0.6134599647E-03
          0                13           1             4   15     1       0.3694344578E-03       4   15    1         0.3848980616E-03      0.4074640374E-03
          0                14           1             4   15     1       0.2454140242E-03       4   15    1         0.2556892128E-03      0.2706604772E-03
          0                15           1             4   15     1       0.1630266659E-03       4   15    1         0.1698531850E-03      0.1797948137E-03
          0                16           1             4   15     1       0.1082970833E-03       4   15    1         0.1128321006E-03      0.1194355444E-03
          0                17           1             4   15     1       0.7194065543E-04       4   15    1         0.7495328441E-04      0.7934150613E-04

    ------------------------------------------------
       NWT REQUIRED           17 OUTER ITERATIONS 
       AND A TOTAL OF         27 INNER ITERATIONS.
    ------------------------------------------------

 OUTPUT CONTROL FOR STRESS PERIOD   10   TIME STEP   15
    PRINT BUDGET
    PRINT HEAD FOR ALL LAYERS
    SAVE HEAD FOR ALL LAYERS
    SAVE BUDGET

  HEAD DEP BOUNDS   PERIOD   10   STEP    15
 BOUNDARY      1   LAYER   1   ROW    13   COL     1   RATE   -0.282374    
 BOUNDARY      2   LAYER   1   ROW    14   COL     9   RATE    0.206770    



 STREAM LISTING     PERIOD     10   STEP       15

 LAYER ROW COL. STREAM  RCH.  FLOW INTO     FLOW TO   FLOW OUT OF   OVRLND.     DIRECT     STREAM       STREAM     STREAM     STREAM   STREAMBED  STREAMBED
                SEG.NO.  NO.  STRM. RCH.    AQUIFER    STRM. RCH.    RUNOFF     PRECIP       ET          HEAD       DEPTH      WIDTH   CONDCTNC.   GRADIENT

   1    1    1     1     1    2.5000E+01  1.1809E+00   2.3819E+01  0.000E+00  0.000E+00  0.000E+00  1.09422E+03  1.171E+00  1.294E+01  5.825E-01  6.758E-01
   1    2    2     1     2    2.3819E+01  2.6582E+00   2.1161E+01  0.000E+00  0.000E+00  0.000E+00  1.08920E+03  1.141E+00  1.255E+01  8.783E-01  1.009E+00
   1    3    3     1     3    2.1161E+01  2.9263E+00   1.8235E+01  0.000E+00  0.000E+00  0.000E+00  1.08351E+03  1.095E+00  1.191E+01  7.146E-01  1.365E+00
   1    3    4     1     4    1.8235E+01  2.4867E+00   1.5748E+01  0.000E+00  0.000E+00  0.000E+00  1.07846E+03  1.049E+00  1.107E+01  6.141E-01  1.350E+00
   1    4    5     2     1    5.7479E+00  2.6727E+00   3.0752E+00  0.000E+00  0.000E+00  0.000E+00  1.07236E+03  4.265E-01  1.200E+01  7.800E-01  1.142E+00
   1    5    6     2     2    3.0752E+00  1.9636E+00   1.1116E+00  0.000E+00  0.000E+00  0.000E+00  1.06678E+03  2.727E-01  1.200E+01  6.000E-01  1.091E+00
   1    6    6     2     3    1.1116E+00  1.1116E+00   0.0000E+00  0.000E+00  0.000E+00  0.000E+00  1.06183E+03  4.197E-02  1.200E+01  6.000E-01  1.014E+00
   1    7    6     2     4    0.0000E+00  0.0000E+00   0.0000E+00  0.000E+00  0.000E+00  0.000E+00  1.05708E+03  0.000E+00  1.200E+01  6.000E-01  1.000E+00
   1    8    6     2     5    0.0000E+00  0.0000E+00   0.0000E+00  0.000E+00  0.000E+00  0.000E+00  1.05236E+03  0.000E+00  1.200E+01  6.000E-01  1.000E+00
   1    3    5     3     1    1.0000E+01  1.7294E+00   8.2706E+00  0.000E+00  0.000E+00  0.000E+00  1.07555E+03  1.909E+00  9.636E+00  7.227E-01  1.196E+00
   1    3    6     3     2    8.2706E+00  1.4983E+00   6.7723E+00  0.000E+00  0.000E+00  0.000E+00  1.07264E+03  1.727E+00  8.909E+00  6.682E-01  1.121E+00
   1    3    7     3     3    6.7723E+00  1.0672E+00   5.7051E+00  0.000E+00  0.000E+00  0.000E+00  1.06987E+03  1.555E+00  8.218E+00  5.547E-01  9.619E-01
   1    4    8     3     4    5.7051E+00  1.5859E+00   4.1191E+00  0.000E+00  0.000E+00  0.000E+00  1.06682E+03  1.364E+00  7.455E+00  6.709E-01  1.182E+00
   1    5    8     3     5    4.1191E+00  1.4877E+00   2.6314E+00  0.000E+00  0.000E+00  0.000E+00  1.06362E+03  1.164E+00  6.655E+00  4.991E-01  1.490E+00
   1    6    8     3     6    2.6314E+00  5.5980E-01   2.0716E+00  0.000E+00  0.000E+00  0.000E+00  1.06158E+03  1.036E+00  6.145E+00  1.844E-01  1.518E+00
   1    5   10     4     1    1.0000E+01  9.0525E-01   9.0947E+00  0.000E+00  0.000E+00  0.000E+00  1.07835E+03  6.210E-01  1.000E+01  2.500E-01  1.207E+00
   1    5    9     4     2    9.0947E+00  1.7835E+00   7.3113E+00  0.000E+00  0.000E+00  0.000E+00  1.07148E+03  5.670E-01  1.000E+01  5.000E-01  1.189E+00
   1    6    8     4     3    7.3113E+00  1.2257E+00   6.0855E+00  0.000E+00  0.000E+00  0.000E+00  1.06368E+03  5.021E-01  1.000E+01  3.500E-01  1.167E+00
   1    6    8     5     1    8.1572E+00  2.7181E-01   7.8854E+00  0.000E+00  0.000E+00  0.000E+00  1.05862E+03  6.217E-01  1.325E+01  5.301E-01  1.709E-01
   1    7    7     5     2    7.8854E+00  1.2480E+00   6.6374E+00  0.000E+00  0.000E+00  0.000E+00  1.05410E+03  6.005E-01  1.249E+01  6.243E-01  6.664E-01
   1    8    7     5     3    6.6374E+00  9.2055E-01   5.7168E+00  0.000E+00  0.000E+00  0.000E+00  1.04982E+03  5.674E-01  1.133E+01  3.966E-01  7.738E-01
   1    8    6     5     4    5.7168E+00  8.4288E-01   4.8739E+00  0.000E+00  0.000E+00  0.000E+00  1.04679E+03  5.376E-01  1.033E+01  2.583E-01  1.088E+00
   1    9    6     6     1    4.8739E+00  1.8133E+00   3.0606E+00  0.000E+00  0.000E+00  0.000E+00  1.04313E+03  4.046E-01  1.200E+01  6.000E-01  1.007E+00
   1   10    7     6     2    3.0606E+00  1.1467E+00   1.9139E+00  0.000E+00  0.000E+00  0.000E+00  1.03849E+03  3.058E-01  1.200E+01  6.000E-01  6.371E-01
   1   11    7     6     3    1.9139E+00  8.0934E-01   1.1046E+00  0.000E+00  0.000E+00  0.000E+00  1.03386E+03  2.266E-01  1.200E+01  6.000E-01  4.496E-01
   1   12    7     6     4    1.1046E+00  3.9905E-01   7.0552E-01  0.000E+00  0.000E+00  0.000E+00  1.02926E+03  1.667E-01  1.200E+01  6.000E-01  2.217E-01
   1   13    7     6     5    7.0552E-01 -7.9354E-01   1.4991E+00  0.000E+00  0.000E+00  0.000E+00  1.02610E+03  1.877E-01  1.200E+01  2.400E-01 -1.102E+00
   1   14    9     7     1    1.5000E+02  1.7263E+00   1.4827E+02  0.000E+00  0.000E+00  0.000E+00  1.03987E+03  2.287E+00  5.529E+01  5.593E+00  1.029E-01
   1   13    8     7     2    1.4827E+02  1.7097E+00   1.4656E+02  0.000E+00  0.000E+00  0.000E+00  1.03478E+03  2.278E+00  5.525E+01  6.147E+00  9.271E-02
   1   13    7     7     3    1.4656E+02  1.5907E+00   1.4497E+02  0.000E+00  0.000E+00  0.000E+00  1.02969E+03  2.269E+00  5.521E+01  5.584E+00  9.496E-02
   1   13    6     8     1    1.4647E+02  3.9566E-01   1.4608E+02  0.000E+00  0.000E+00  0.000E+00  1.02467E+03  2.790E+00  4.046E+01  4.123E+00  3.199E-02
   1   13    5     8     2    1.4608E+02 -2.4931E-01   1.4633E+02  0.000E+00  0.000E+00  0.000E+00  1.01841E+03  2.790E+00  4.045E+01  4.122E+00 -2.016E-02
   1   13    4     8     3    1.4633E+02 -1.0669E+00   1.4739E+02  0.000E+00  0.000E+00  0.000E+00  1.01217E+03  2.795E+00  4.052E+01  4.129E+00 -8.613E-02
   1   13    3     8     4    1.4739E+02 -1.7352E+00   1.4913E+02  0.000E+00  0.000E+00  0.000E+00  1.00593E+03  2.805E+00  4.067E+01  4.144E+00 -1.396E-01
   1   13    2     8     5    1.4913E+02 -1.9033E+00   1.5103E+02  0.000E+00  0.000E+00  0.000E+00  9.99692E+02  2.817E+00  4.085E+01  4.163E+00 -1.524E-01
   1   13    1     8     6    1.5103E+02 -1.8204E+00   1.5285E+02  0.000E+00  0.000E+00  0.000E+00  9.94705E+02  2.830E+00  4.104E+01  2.509E+00 -2.418E-01



 UBDSV3 SAVING "           GW ET" ON UNIT  61 AT TIME STEP 15, STRESS PERIOD 10
 UBDSV3 SAVING "    UZF RECHARGE" ON UNIT  61 AT TIME STEP 15, STRESS PERIOD 10
 UBDSV3 SAVING " SURFACE LEAKAGE" ON UNIT  61 AT TIME STEP 15, STRESS PERIOD 10
 UBDSV3 SAVING "       HORT+DUNN" ON UNIT  61 AT TIME STEP 15, STRESS PERIOD 10
 UBDSV3 SAVING "  STORAGE CHANGE" ON UNIT  61 AT TIME STEP 15, STRESS PERIOD 10


UNSATURATED ZONE PACKAGE VOLUMETRIC BUDGET FOR  TIME STEP    15 STRESS PERIOD   10
  ------------------------------------------------------------------------------



     CUMULATIVE VOLUMES      L**3       RATES FOR THIS TIME STEP      L**3/T
     ------------------                 ------------------------

           IN:                                      IN:
           ---                                      ---
        INFILTRATION =  1492243978.6206          INFILTRATION =          16.9500

          OUT:                                     OUT:
          ----                                     ----
              UZF ET =  1906291781.0303                UZF ET =          51.5191
        UZF RECHARGE =   345857313.4789          UZF RECHARGE =          14.9674

            IN - OUT =  -759905115.8886              IN - OUT =         -49.5365

          STORAGE:                                 STORAGE:
          --------                                 --------
      STORAGE CHANGE =  -759651070.0325        STORAGE CHANGE =         -49.5329

 PERCENT DISCREPANCY IS DIFFERENCE BETWEEN IN-OUT MINUS CHANGE IN STORAGE
 DIVIDED BY THE AVERAGE OF IN AND OUT TIMES 100

 PERCENT DISCREPANCY =          -0.00     PERCENT DISCREPANCY =          -0.01






1
              HEAD IN LAYER 1 AT END OF TIME STEP 15 IN STRESS PERIOD 10
  ---------------------------------------------------------------------------

           1       2       3       4       5       6       7       8       9      10
 ...................................................................................
   1  1092.19 1087.69 6999.00 6999.00 6999.00 6999.00 6999.00 6999.00 6999.00 6999.00
   2  1087.61 1086.17 1078.37 6999.00 6999.00 1071.71 1071.28 1069.06 6999.00 6999.00
   3  6999.00 1074.83 1078.87 1074.28 1073.15 1070.39 1067.95 1065.99 6999.00 6999.00
   4  1067.13 1066.03 1065.01 1063.73 1066.32 1061.53 1059.94 1064.45 1062.26 6999.00
   5  1063.44 1059.45 1055.81 1053.60 1055.89 1060.55 1057.28 1060.64 1064.43 1065.63
   6  1059.73 1054.23 1049.79 1041.04 1044.17 1053.41 1054.09 1058.11 1057.84 1063.25
   7  1056.51 1049.18 1044.38 1032.71 1036.37 1046.07 1052.10 1052.70 1053.48 6999.00
   8  6999.00 1043.22 1039.67 1028.77 1032.22 1043.52 1047.50 1047.52 1049.88 6999.00
   9  6999.00 1037.28 1034.84 1024.95 1028.78 1040.11 1040.24 1041.67 1045.56 6999.00
  10  6999.00 1031.41 1030.27 1022.73 1025.21 1032.48 1036.58 1037.36 1041.85 1046.51
  11  6999.00 1023.88 1024.43 1024.21 1025.85 1029.10 1032.51 1033.91 1037.92 6999.00
  12  1006.75 1013.42 1015.92 1019.54 1022.38 1025.55 1028.59 1030.48 1035.29 6999.00
  13   995.43 1000.15 1006.35 1012.43 1018.48 1024.57 1029.40 1034.50 1035.85 6999.00
  14  6999.00 1012.28 1017.00 1021.58 1025.47 1028.51 1031.06 1034.62 1039.56 6999.00
  15  6999.00 6999.00 1026.35 1028.68 1031.96 1033.87 6999.00 6999.00 6999.00 6999.00
1
              HEAD IN LAYER 2 AT END OF TIME STEP 15 IN STRESS PERIOD 10
  ---------------------------------------------------------------------------

           1       2       3       4       5       6       7       8       9      10
 ...................................................................................
   1  1091.01 1087.13 6999.00 6999.00 6999.00 6999.00 6999.00 6999.00 6999.00 6999.00
   2  1087.38 1080.80 1075.50 6999.00 6999.00 1070.89 1070.48 1068.81 6999.00 6999.00
   3  6999.00 1072.77 1068.28 1064.56 1063.83 1064.46 1065.07 1065.54 6999.00 6999.00
   4  1066.25 1065.42 1062.53 1059.19 1057.78 1057.29 1058.55 1061.72 1061.87 6999.00
   5  1062.66 1058.91 1055.84 1053.90 1053.62 1053.91 1054.23 1056.07 1060.00 1063.88
   6  1058.92 1053.85 1050.34 1048.91 1049.14 1050.29 1051.53 1053.38 1056.99 1062.93
   7  1055.79 1048.85 1045.30 1044.17 1044.79 1046.29 1048.14 1050.59 1053.38 6999.00
   8  6999.00 1042.99 1040.51 1039.80 1040.57 1042.14 1043.91 1047.35 1049.59 6999.00
   9  6999.00 1036.95 1035.58 1035.44 1036.37 1037.97 1039.36 1041.60 1045.24 6999.00
  10  6999.00 1031.07 1030.85 1031.51 1032.68 1034.24 1035.47 1037.31 1041.45 1046.51
  11  6999.00 1024.07 1025.28 1027.87 1029.53 1031.24 1032.67 1034.16 1037.63 6999.00
  12  1007.04 1014.78 1019.92 1023.84 1026.54 1028.81 1030.48 1031.82 1035.24 6999.00
  13  1000.29 1007.78 1015.81 1021.14 1024.69 1027.59 1030.09 1032.69 1035.44 6999.00
  14  6999.00 1012.56 1017.42 1021.95 1025.64 1028.58 1030.94 1034.24 1036.91 6999.00
  15  6999.00 6999.00 1026.35 1028.67 1031.41 1033.31 6999.00 6999.00 6999.00 6999.00

 HEAD WILL BE SAVED ON UNIT   58 AT END OF TIME STEP   15, STRESS PERIOD   10
1
  VOLUMETRIC BUDGET FOR ENTIRE MODEL AT END OF TIME STEP   15, STRESS PERIOD  10
  ------------------------------------------------------------------------------

     CUMULATIVE VOLUMES      L**3       RATES FOR THIS TIME STEP      L**3/T
     ------------------                 ------------------------

           IN:                                      IN:
           ---                                      ---
             STORAGE     =    76345752.0000               STORAGE     =           1.0282
       CONSTANT HEAD     =           0.0000         CONSTANT HEAD     =           0.0000
               WELLS     =           0.0000                 WELLS     =           0.0000
     HEAD DEP BOUNDS     =     5432321.5000       HEAD DEP BOUNDS     =           0.2068
      STREAM LEAKAGE     =  1038524352.0000        STREAM LEAKAGE     =          39.7169
        UZF RECHARGE     =   345857312.0000          UZF RECHARGE     =          14.9675
               GW ET     =           0.0000                 GW ET     =           0.0000
     SURFACE LEAKAGE     =           0.0000       SURFACE LEAKAGE     =           0.0000

                TOTAL IN =  1466159744.0000                  TOTAL IN =          55.9193

          OUT:                                     OUT:
          ----                                     ----
             STORAGE     =   425218336.0000               STORAGE     =          27.4875
       CONSTANT HEAD     =           0.0000         CONSTANT HEAD     =           0.0000
               WELLS     =   315359968.0000                 WELLS     =           0.0000
     HEAD DEP BOUNDS     =     7437964.5000       HEAD DEP BOUNDS     =           0.2824
      STREAM LEAKAGE     =   211203824.0000        STREAM LEAKAGE     =           7.5686
        UZF RECHARGE     =           0.0000          UZF RECHARGE     =           0.0000
               GW ET     =   506929248.0000                 GW ET     =          20.5808
     SURFACE LEAKAGE     =           0.0000       SURFACE LEAKAGE     =           0.0000

               TOTAL OUT =  1466149376.0000                 TOTAL OUT =          55.9192

                IN - OUT =       10368.0000                  IN - OUT =       1.1063E-04

     PERCENT DISCREPANCY =           0.00         PERCENT DISCREPANCY =           0.00






         TIME SUMMARY AT END OF TIME STEP   15 IN STRESS PERIOD   10
                    SECONDS     MINUTES      HOURS       DAYS        YEARS
                    -----------------------------------------------------------
   TIME STEP LENGTH 3.14103E+05  5235.0      87.251      3.6354     9.95332E-03
 STRESS PERIOD TIME 2.62800E+06  43800.      730.00      30.417     8.32763E-02
         TOTAL TIME 2.62800E+07 4.38000E+05  7300.0      304.17     0.83276    
1
1
                            STRESS PERIOD NO.   11, LENGTH =   2628000.    
                            -----------------------------------------------

                              NUMBER OF TIME STEPS =    15

                               MULTIPLIER FOR DELT =     1.100

                            INITIAL TIME STEP SIZE =   82713.07    

 WELL NO.  LAYER   ROW   COL   STRESS RATE         
 --------------------------------------------------
      1      1      6      4      -3.000    
      2      1      6      5      -3.000    
      3      1      7      4      -3.000    
      4      1      7      5      -3.000    
      5      1      8      4      -3.000    
      6      1      8      5      -3.000    
      7      1      9      4      -3.000    
      8      1      9      5      -3.000    
      9      1     10      4      -3.000    
     10      1     10      5      -3.000    

     10 WELLS

 REUSING NON-PARAMETER GHB CELLS FROM LAST STRESS PERIOD

      2 GHB CELLS

 REUSING STREAM SEGMENT DATA FROM LAST STRESS PERIOD



            AREAL INFILTRATION RATE
 READING ON UNIT   19 WITH FORMAT: (10F4.0)            

            1           2           3           4           5           6           7           8           9          10
 ........................................................................................................................
   1   1.0000E-09  2.0000E-09   0.000       0.000       0.000       0.000       0.000       0.000       0.000       0.000    
   2   2.0000E-09  1.0000E-09  2.0000E-09   0.000       0.000      8.0000E-09  8.0000E-09  5.0000E-09   0.000       0.000    
   3    0.000      5.0000E-09  1.0000E-09  1.0000E-09  8.0000E-09  8.0000E-09  5.0000E-09  5.0000E-09   0.000       0.000    
   4   8.0000E-09  5.0000E-09  1.0000E-09  1.0000E-09  1.0000E-09  1.0000E-09  1.0000E-09  1.0000E-09  2.0000E-09   0.000    
   5   8.0000E-09  5.0000E-09  1.0000E-09  1.0000E-09  1.0000E-09  1.0000E-09  1.0000E-09  1.0000E-09  1.0000E-09  1.0000E-09
   6   8.0000E-09  5.0000E-09  5.0000E-09  2.0000E-09  2.0000E-09  1.0000E-09  1.0000E-09  1.0000E-09  1.0000E-09  5.0000E-09
   7   8.0000E-09  5.0000E-09  5.0000E-09  2.0000E-09  2.0000E-09  1.0000E-09  1.0000E-09  2.0000E-09  2.0000E-09   0.000    
   8    0.000      5.0000E-09  5.0000E-09  2.0000E-09  2.0000E-09  1.0000E-09  1.0000E-09  2.0000E-09  5.0000E-09   0.000    
   9    0.000      5.0000E-09  5.0000E-09  2.0000E-09  2.0000E-09  1.0000E-09  1.0000E-09  2.0000E-09  5.0000E-09   0.000    
  10    0.000      5.0000E-09  5.0000E-09  2.0000E-09  2.0000E-09  1.0000E-09  1.0000E-09  2.0000E-09  5.0000E-09  8.0000E-09
  11    0.000      1.0000E-09  1.0000E-09  1.0000E-09  1.0000E-09  1.0000E-09  1.0000E-09  2.0000E-09  5.0000E-09   0.000    
  12   1.0000E-09  1.0000E-09  1.0000E-09  1.0000E-09  1.0000E-09  1.0000E-09  1.0000E-09  1.0000E-09  2.0000E-09   0.000    
  13   1.0000E-09  1.0000E-09  2.0000E-09  2.0000E-09  2.0000E-09  2.0000E-09  2.0000E-09  1.0000E-09  1.0000E-09   0.000    
  14    0.000      2.0000E-09  5.0000E-09  5.0000E-09  5.0000E-09  5.0000E-09  5.0000E-09  2.0000E-09  1.0000E-09   0.000    
  15    0.000       0.000      8.0000E-09  8.0000E-09  8.0000E-09  8.0000E-09   0.000       0.000       0.000       0.000    

USING ET RATE FROM PREVIOUS STRESS PERIOD. CURRENT PERIOD IS:      11

 USING ET EXTINCTION DEPTH FROM PREVIOUS STRESS PERIOD. CURRENT PERIOD IS:      11

 USING EXTINCTION WATER CONTENT FROM PREVIOUS STRESS PERIOD. CURRENT PERIOD IS:      11
 
 SOLVING FOR HEAD 
                                                   Max.-Head-Change                         Max.-Flux-Residual
  Residual-Control   Outer-Iter.   Inner-Iter.     Column Row Layer    Maximum-Head-Change  Column Row Layer    Maximum-Flux-Residual          L2-NORM 
          0                 1           2             5    6     1      -0.2985935420E-01       5    6    1        -0.1648411433E+01      0.4914823145E+01
          0                 2           2             1    7     1       0.6546126128E-02       1    7    1         0.1804219571E+00      0.4783672655E+00
          0                 3           2             4   15     1       0.2991102161E-02       1    7    1         0.5549649559E-01      0.1062523213E+00
          0                 4           2             4   15     1       0.2713713578E-02       1    7    1         0.1708218963E-01      0.3178006624E-01
          0                 5           2             4   15     1       0.2408988308E-02       4   15    1         0.7384757742E-02      0.1183999826E-01
          0                 6           2             4   15     1       0.2122979171E-02       4   15    1         0.6543595224E-02      0.7180499467E-02
          0                 7           2             4   15     1       0.1866298320E-02       4   15    1         0.5763142182E-02      0.5868561240E-02
          0                 8           2             4   15     1       0.1639259775E-02       4   15    1         0.5065273685E-02      0.5097084501E-02
          0                 9           2             4   15     1       0.1439421250E-02       4   15    1         0.4448751570E-02      0.4466450279E-02
          0                10           2             4   15     1       0.1263817994E-02       4   15    1         0.3906316972E-02      0.3919592433E-02
                                                   Max.-Head-Change                         Max.-Flux-Residual
  Residual-Control   Outer-Iter.   Inner-Iter.     Column Row Layer    Maximum-Head-Change  Column Row Layer    Maximum-Flux-Residual          L2-NORM 
          0                11           2             4   15     1       0.1109599385E-02       4   15    1         0.3429733742E-02      0.3440790836E-02
          0                12           1             4   15     1       0.9741879264E-03       4   15    1         0.3011208444E-02      0.3020745304E-02
          0                13           1             4   15     1       0.8552981144E-03       4   15    1         0.2643728988E-02      0.2652052410E-02
          0                14           1             4   15     1       0.7509165605E-03       4   15    1         0.2321087802E-02      0.2328381622E-02
          0                15           1             4   15     1       0.6592735377E-03       4   15    1         0.2037819429E-02      0.2044219876E-02
          0                16           1             4   15     1       0.5788146796E-03       4   15    1         0.1789120758E-02      0.1794739969E-02
          0                17           1             4   15     1       0.5081751306E-03       4   15    1         0.1570773449E-02      0.1575707703E-02
          0                18           1             4   15     1       0.4461565483E-03       4   15    1         0.1379073552E-02      0.1383406646E-02
          0                19           1             4   15     1       0.3917068215E-03       4   15    1         0.1210769022E-02      0.1214574237E-02
          0                20           1             4   15     1       0.3439022351E-03       4   15    1         0.1063004666E-02      0.1066346277E-02
                                                   Max.-Head-Change                         Max.-Flux-Residual
  Residual-Control   Outer-Iter.   Inner-Iter.     Column Row Layer    Maximum-Head-Change  Column Row Layer    Maximum-Flux-Residual          L2-NORM 
          0                21           1             4   15     1       0.3019318048E-03       4   15    1         0.9332737288E-03      0.9362082989E-03
          0                22           1             4   15     1       0.2650835197E-03       4   15    1         0.8193753814E-03      0.8219525328E-03
          0                23           1             4   15     1       0.2327322648E-03       4   15    1         0.7193773869E-03      0.7216406615E-03
          0                24           1             4   15     1       0.2043292140E-03       4   15    1         0.6315833220E-03      0.6335709832E-03
          0                25           1             4   15     1       0.1793925207E-03       4   15    1         0.5545037977E-03      0.5562494162E-03
          0                26           1             4   15     1       0.1574991456E-03       4   15    1         0.4868311927E-03      0.4883642607E-03
          0                27           1             4   15     1       0.1382776762E-03       4   15    1         0.4274174701E-03      0.4287640962E-03
          0                28           1             4   15     1       0.1214020286E-03       4   15    1         0.3752547015E-03      0.3764373474E-03
          0                29           1             4   15     1       0.1065859143E-03       4   15    1         0.3294579676E-03      0.3304965734E-03
          0                30           1             4   15     1       0.9357798439E-04       4   15    1         0.2892503467E-03      0.2901628323E-03

    ------------------------------------------------
       NWT REQUIRED           30 OUTER ITERATIONS 
       AND A TOTAL OF         41 INNER ITERATIONS.
    ------------------------------------------------

 NO OUTPUT CONTROL FOR STRESS PERIOD   11   TIME STEP    1
 
 SOLVING FOR HEAD 
                                                   Max.-Head-Change                         Max.-Flux-Residual
  Residual-Control   Outer-Iter.   Inner-Iter.     Column Row Layer    Maximum-Head-Change  Column Row Layer    Maximum-Flux-Residual          L2-NORM 
          0                 1           2             5    6     1      -0.3368244861E-01       5    6    1        -0.1690833402E+01      0.5032690386E+01
          0                 2           2             1    7     1       0.7178091568E-02       1    7    1         0.1798850150E+00      0.5928015746E+00
          0                 3           2             4   15     1       0.3538500318E-02       1    7    1         0.5531889207E-01      0.1032668260E+00
          0                 4           2             4   15     1       0.3173047258E-02       1    7    1         0.1702296349E-01      0.3054369039E-01
          0                 5           2             4   15     1       0.2783743298E-02       4   15    1         0.7840635921E-02      0.1186682477E-01
          0                 6           2             4   15     1       0.2424257686E-02       4   15    1         0.6865956037E-02      0.7456364861E-02
          0                 7           2             4   15     1       0.2105851116E-02       4   15    1         0.5975520506E-02      0.6082810830E-02
          0                 8           2             4   15     1       0.1827661553E-02       4   15    1         0.5189549744E-02      0.5225696207E-02
          0                 9           2             4   15     1       0.1585739607E-02       4   15    1         0.4503652869E-02      0.4524858125E-02
          0                10           2             4   15     1       0.1375695031E-02       4   15    1         0.3907415697E-02      0.3923478636E-02
                                                   Max.-Head-Change                         Max.-Flux-Residual
  Residual-Control   Outer-Iter.   Inner-Iter.     Column Row Layer    Maximum-Head-Change  Column Row Layer    Maximum-Flux-Residual          L2-NORM 
          0                11           2             4   15     1       0.1193428954E-02       4   15    1         0.3389814827E-02      0.3403123170E-02
          0                12           1             4   15     1       0.1035298199E-02       4   15    1         0.2940688508E-02      0.2952054015E-02
          0                13           1             4   15     1       0.8981160068E-03       4   15    1         0.2551041101E-02      0.2560848663E-02
          0                14           1             4   15     1       0.7791099560E-03       4   15    1         0.2213014635E-02      0.2221508207E-02
          0                15           1             4   15     1       0.6758726068E-03       4   15    1         0.1919776014E-02      0.1927140861E-02
          0                16           1             4   15     1       0.5863148018E-03       4   15    1         0.1665392656E-02      0.1671781532E-02
          0                17           1             4   15     1       0.5086239979E-03       4   15    1         0.1444716602E-02      0.1450259683E-02
          0                18           1             4   15     1       0.4412277606E-03       4   15    1         0.1253281589E-02      0.1258091190E-02
          0                19           1             4   15     1       0.3827619947E-03       4   15    1         0.1087213032E-02      0.1091386323E-02
          0                20           1             4   15     1       0.3320433523E-03       4   15    1         0.9431497132E-03      0.9467709249E-03
                                                   Max.-Head-Change                         Max.-Flux-Residual
  Residual-Control   Outer-Iter.   Inner-Iter.     Column Row Layer    Maximum-Head-Change  Column Row Layer    Maximum-Flux-Residual          L2-NORM 
          0                21           1             4   15     1       0.2880452860E-03       4   15    1         0.8181757901E-03      0.8213179644E-03
          0                22           1             4   15     1       0.2498772720E-03       4   15    1         0.7097617853E-03      0.7124884066E-03
          0                23           1             4   15     1       0.2167667873E-03       4   15    1         0.6157133938E-03      0.6180793687E-03
          0                24           1             4   15     1       0.1880436734E-03       4   15    1         0.5341270713E-03      0.5362094079E-03
          0                25           1             4   15     1       0.1631265728E-03       4   15    1         0.4633515061E-03      0.4651668670E-03
          0                26           1             4   15     1       0.1415111631E-03       4   15    1         0.4019541985E-03      0.4035001276E-03
          0                27           1             4   15     1       0.1227599460E-03       4   15    1         0.3486924626E-03      0.3500340665E-03
          0                28           1             4   15     1       0.1064933963E-03       4   15    1         0.3024882787E-03      0.3036525495E-03
          0                29           1             4   15     1       0.9238227777E-04       4   15    1         0.2624064714E-03      0.2634765928E-03

    ------------------------------------------------
       NWT REQUIRED           29 OUTER ITERATIONS 
       AND A TOTAL OF         40 INNER ITERATIONS.
    ------------------------------------------------

 NO OUTPUT CONTROL FOR STRESS PERIOD   11   TIME STEP    2
 
 SOLVING FOR HEAD 
                                                   Max.-Head-Change                         Max.-Flux-Residual
  Residual-Control   Outer-Iter.   Inner-Iter.     Column Row Layer    Maximum-Head-Change  Column Row Layer    Maximum-Flux-Residual          L2-NORM 
          0                 1           2             5    6     1      -0.3686152895E-01       5    6    1        -0.1682843947E+01      0.5005053525E+01
          0                 2           2             4   15     2       0.7668664539E-02       4   15    2         0.1760030121E+00      0.5783232139E+00
          0                 3           2             4   15     1       0.4104916784E-02       4   15    2         0.5359735660E-01      0.9432779750E-01
          0                 4           2             4   15     1       0.3637077535E-02       4   15    2         0.1671215042E-01      0.2740751294E-01
          0                 5           2             4   15     1       0.3151075964E-02       4   15    1         0.8160303754E-02      0.1125517930E-01
          0                 6           2             4   15     1       0.2709263158E-02       4   15    1         0.7056350374E-02      0.7515912114E-02
          0                 7           2             4   15     1       0.2323235566E-02       4   15    1         0.6062959062E-02      0.6161407072E-02
          0                 8           2             4   15     1       0.1990367632E-02       4   15    1         0.5197880160E-02      0.5237454998E-02
          0                 9           2             4   15     1       0.1704639417E-02       4   15    1         0.4452779328E-02      0.4477644456E-02
          0                10           2             4   15     1       0.1459763105E-02       4   15    1         0.3813450392E-02      0.3832465693E-02
                                                   Max.-Head-Change                         Max.-Flux-Residual
  Residual-Control   Outer-Iter.   Inner-Iter.     Column Row Layer    Maximum-Head-Change  Column Row Layer    Maximum-Flux-Residual          L2-NORM 
          0                11           2             4   15     1       0.1250014151E-02       4   15    1         0.3265605081E-02      0.3281248078E-02
          0                12           1             4   15     1       0.1070388438E-02       4   15    1         0.2796370549E-02      0.2809579096E-02
          0                13           1             4   15     1       0.9165702665E-03       4   15    1         0.2394532248E-02      0.2405788239E-02
          0                14           1             4   15     1       0.7848549071E-03       4   15    1         0.2050429676E-02      0.2060053157E-02
          0                15           1             4   15     1       0.6720672520E-03       4   15    1         0.1755773313E-02      0.1764010549E-02
          0                16           1             4   15     1       0.5754876415E-03       4   15    1         0.1503459699E-02      0.1510512958E-02
          0                17           1             4   15     1       0.4927869979E-03       4   15    1         0.1287404620E-02      0.1293445320E-02
          0                18           1             4   15     1       0.4219708697E-03       4   15    1         0.1102397730E-02      0.1107571432E-02
          0                19           1             4   15     1       0.3613313968E-03       4   15    1         0.9439772950E-03      0.9484084654E-03
          0                20           1             4   15     1       0.3094061412E-03       4   15    1         0.8083227179E-03      0.8121184305E-03
                                                   Max.-Head-Change                         Max.-Flux-Residual
  Residual-Control   Outer-Iter.   Inner-Iter.     Column Row Layer    Maximum-Head-Change  Column Row Layer    Maximum-Flux-Residual          L2-NORM 
          0                21           1             4   15     1       0.2649428235E-03       4   15    1         0.6921624276E-03      0.6954129943E-03
          0                22           1             4   15     1       0.2268691232E-03       4   15    1         0.5926949917E-03      0.5954794798E-03
          0                23           1             4   15     1       0.1942668173E-03       4   15    1         0.5075215577E-03      0.5099072019E-03
          0                24           1             4   15     1       0.1663496380E-03       4   15    1         0.4345880019E-03      0.4366307036E-03
          0                25           1             4   15     1       0.1424443069E-03       4   15    1         0.3721353873E-03      0.3738864864E-03
          0                26           1             4   15     1       0.1219742994E-03       4   15    1         0.3186575470E-03      0.3201584121E-03
          0                27           1             4   15     1       0.1044459413E-03       4   15    1         0.2728647576E-03      0.2741491271E-03
          0                28           1             4   15     1       0.8943650217E-04       4   15    1         0.2336526367E-03      0.2347541689E-03

    ------------------------------------------------
       NWT REQUIRED           28 OUTER ITERATIONS 
       AND A TOTAL OF         39 INNER ITERATIONS.
    ------------------------------------------------

 NO OUTPUT CONTROL FOR STRESS PERIOD   11   TIME STEP    3
 
 SOLVING FOR HEAD 
                                                   Max.-Head-Change                         Max.-Flux-Residual
  Residual-Control   Outer-Iter.   Inner-Iter.     Column Row Layer    Maximum-Head-Change  Column Row Layer    Maximum-Flux-Residual          L2-NORM 
          0                 1           2             5    6     1      -0.4032187716E-01       5    6    1        -0.1674246552E+01      0.4979302003E+01
          0                 2           2             4   15     2       0.8376224538E-02       4   15    2         0.1748166814E+00      0.5708326235E+00
          0                 3           2             4   15     1       0.4748363449E-02       4   15    2         0.5321542087E-01      0.9134740521E-01
          0                 4           2             4   15     1       0.4152948825E-02       4   15    2         0.1664737700E-01      0.2677161532E-01
          0                 5           2             4   15     1       0.3549553169E-02       4   15    1         0.8459403717E-02      0.1135066482E-01
          0                 6           2             4   15     1       0.3009927832E-02       4   15    1         0.7215924504E-02      0.7666766988E-02
          0                 7           2             4   15     1       0.2545267852E-02       4   15    1         0.6114658345E-02      0.6220572686E-02
          0                 8           2             4   15     1       0.2150231004E-02       4   15    1         0.5169434165E-02      0.5215065857E-02
          0                 9           2             4   15     1       0.1815874896E-02       4   15    1         0.4366735856E-02      0.4396053682E-02
          0                10           2             4   15     1       0.1533321631E-02       4   15    1         0.3687604893E-02      0.3709989319E-02
                                                   Max.-Head-Change                         Max.-Flux-Residual
  Residual-Control   Outer-Iter.   Inner-Iter.     Column Row Layer    Maximum-Head-Change  Column Row Layer    Maximum-Flux-Residual          L2-NORM 
          0                11           2             4   15     1       0.1294677629E-02       4   15    1         0.3113773432E-02      0.3132003904E-02
          0                12           1             4   15     1       0.1093158930E-02       4   15    1         0.2629140146E-02      0.2644337753E-02
          0                13           1             4   15     1       0.9230018915E-03       4   15    1         0.2219907243E-02      0.2232682515E-02
          0                14           1             4   15     1       0.7793293551E-03       4   15    1         0.1874363948E-02      0.1885135004E-02
          0                15           1             4   15     1       0.6580201375E-03       4   15    1         0.1582604185E-02      0.1591694954E-02
          0                16           1             4   15     1       0.5555935965E-03       4   15    1         0.1336258399E-02      0.1343933955E-02
          0                17           1             4   15     1       0.4691105986E-03       4   15    1         0.1128258200E-02      0.1134740300E-02
          0                18           1             4   15     1       0.3960894250E-03       4   15    1         0.9526349696E-03      0.9581089538E-03
          0                19           1             4   15     1       0.3344346355E-03       4   15    1         0.8043490080E-03      0.8089715576E-03
          0                20           1             4   15     1       0.2823769546E-03       4   15    1         0.6791450488E-03      0.6830497323E-03
                                                   Max.-Head-Change                         Max.-Flux-Residual
  Residual-Control   Outer-Iter.   Inner-Iter.     Column Row Layer    Maximum-Head-Change  Column Row Layer    Maximum-Flux-Residual          L2-NORM 
          0                21           1             4   15     1       0.2384225081E-03       4   15    1         0.5734301807E-03      0.5767275772E-03
          0                22           1             4   15     1       0.2013099576E-03       4   15    1         0.4841707568E-03      0.4869553619E-03
          0                23           1             4   15     1       0.1699743003E-03       4   15    1         0.4088053434E-03      0.4111584019E-03
          0                24           1             4   15     1       0.1435163131E-03       4   15    1         0.3451712168E-03      0.3471579933E-03
          0                25           1             4   15     1       0.1211767431E-03       4   15    1         0.2914422985E-03      0.2931200001E-03
          0                26           1             4   15     1       0.1023145232E-03       4   15    1         0.2460767563E-03      0.2474959354E-03
          0                27           1             4   15     1       0.8638837262E-04       4   15    1         0.2077727579E-03      0.2089708040E-03

    ------------------------------------------------
       NWT REQUIRED           27 OUTER ITERATIONS 
       AND A TOTAL OF         38 INNER ITERATIONS.
    ------------------------------------------------

 NO OUTPUT CONTROL FOR STRESS PERIOD   11   TIME STEP    4
 
 SOLVING FOR HEAD 
                                                   Max.-Head-Change                         Max.-Flux-Residual
  Residual-Control   Outer-Iter.   Inner-Iter.     Column Row Layer    Maximum-Head-Change  Column Row Layer    Maximum-Flux-Residual          L2-NORM 
          0                 1           2             5    6     1      -0.4408383610E-01       5    6    1        -0.1664917866E+01      0.4959260513E+01
          0                 2           2             4   15     2       0.9143982314E-02       4   15    2         0.1735287039E+00      0.5677017398E+00
          0                 3           2             4   15     1       0.5476823118E-02       4   15    2         0.5280814100E-01      0.9056509642E-01
          0                 4           2             4   15     1       0.4723369838E-02       4   15    2         0.1658330332E-01      0.2674962065E-01
          0                 5           2             4   15     1       0.3978418825E-02       4   15    1         0.8733946513E-02      0.1155208456E-01
          0                 6           2             4   15     1       0.3323560862E-02       4   15    1         0.7341231382E-02      0.7801179451E-02
          0                 7           2             4   15     1       0.2768417120E-02       4   15    1         0.6128355773E-02      0.6244737872E-02
          0                 8           2             4   15     1       0.2303599916E-02       4   15    1         0.5103385081E-02      0.5156186834E-02
          0                 9           2             4   15     1       0.1916109951E-02       4   15    1         0.4246129411E-02      0.4280545348E-02
          0                10           2             4   15     1       0.1593586431E-02       4   15    1         0.3531767015E-02      0.3557920450E-02
                                                   Max.-Head-Change                         Max.-Flux-Residual
  Residual-Control   Outer-Iter.   Inner-Iter.     Column Row Layer    Maximum-Head-Change  Column Row Layer    Maximum-Flux-Residual          L2-NORM 
          0                11           2             4   15     1       0.1325287025E-02       4   15    1         0.2937257648E-02      0.2958308149E-02
          0                12           2             4   15     1       0.1102140045E-02       4   15    1         0.2442724674E-02      0.2460026835E-02
          0                13           1             4   15     1       0.9165600748E-03       4   15    1         0.2031424606E-02      0.2045754516E-02
          0                14           1             4   15     1       0.7622266522E-03       4   15    1         0.1689369477E-02      0.1701270084E-02
          0                15           1             4   15     1       0.6338799050E-03       4   15    1         0.1404907628E-02      0.1414800656E-02
          0                16           1             4   15     1       0.5271445468E-03       4   15    1         0.1168343669E-02      0.1176570725E-02
          0                17           1             4   15     1       0.4383816960E-03       4   15    1         0.9716130656E-03      0.9784554177E-03
          0                18           1             4   15     1       0.3645651019E-03       4   15    1         0.8080087196E-03      0.8136998400E-03
          0                19           1             4   15     1       0.3031780613E-03       4   15    1         0.6719527516E-03      0.6766864569E-03
          0                20           1             4   15     1       0.2521276351E-03       4   15    1         0.5588064655E-03      0.5627438389E-03
                                                   Max.-Head-Change                         Max.-Flux-Residual
  Residual-Control   Outer-Iter.   Inner-Iter.     Column Row Layer    Maximum-Head-Change  Column Row Layer    Maximum-Flux-Residual          L2-NORM 
          0                21           1             4   15     1       0.2096732997E-03       4   15    1         0.4647122356E-03      0.4679873961E-03
          0                22           1             4   15     1       0.1743676091E-03       4   15    1         0.3864619964E-03      0.3891864969E-03
          0                23           1             4   15     1       0.1450068418E-03       4   15    1         0.3213878680E-03      0.3236539351E-03
          0                24           1             4   15     1       0.1205899673E-03       4   15    1         0.2672712009E-03      0.2691585184E-03
          0                25           1             4   15     1       0.1002845112E-03       4   15    1         0.2222669306E-03      0.2238361397E-03
          0                26           1             4   15     1       0.8339817480E-04       4   15    1         0.1848406723E-03      0.1861461710E-03

    ------------------------------------------------
       NWT REQUIRED           26 OUTER ITERATIONS 
       AND A TOTAL OF         38 INNER ITERATIONS.
    ------------------------------------------------

 OUTPUT CONTROL FOR STRESS PERIOD   11   TIME STEP    5
    PRINT BUDGET
    SAVE BUDGET

            WELLS   PERIOD   11   STEP   5
 WELL      1   LAYER   1   ROW     6   COL     4   RATE    -3.00000    
 WELL      2   LAYER   1   ROW     6   COL     5   RATE    -3.00000    
 WELL      3   LAYER   1   ROW     7   COL     4   RATE    -3.00000    
 WELL      4   LAYER   1   ROW     7   COL     5   RATE    -3.00000    
 WELL      5   LAYER   1   ROW     8   COL     4   RATE    -3.00000    
 WELL      6   LAYER   1   ROW     8   COL     5   RATE    -3.00000    
 WELL      7   LAYER   1   ROW     9   COL     4   RATE    -3.00000    
 WELL      8   LAYER   1   ROW     9   COL     5   RATE    -3.00000    
 WELL      9   LAYER   1   ROW    10   COL     4   RATE    -3.00000    
 WELL     10   LAYER   1   ROW    10   COL     5   RATE    -3.00000    

  HEAD DEP BOUNDS   PERIOD   11   STEP     5
 BOUNDARY      1   LAYER   1   ROW    13   COL     1   RATE   -0.282361    
 BOUNDARY      2   LAYER   1   ROW    14   COL     9   RATE    0.206827    



 STREAM LISTING     PERIOD     11   STEP        5

 LAYER ROW COL. STREAM  RCH.  FLOW INTO     FLOW TO   FLOW OUT OF   OVRLND.     DIRECT     STREAM       STREAM     STREAM     STREAM   STREAMBED  STREAMBED
                SEG.NO.  NO.  STRM. RCH.    AQUIFER    STRM. RCH.    RUNOFF     PRECIP       ET          HEAD       DEPTH      WIDTH   CONDCTNC.   GRADIENT

   1    1    1     1     1    2.5000E+01  1.1820E+00   2.3818E+01  0.000E+00  0.000E+00  0.000E+00  1.09422E+03  1.171E+00  1.294E+01  5.825E-01  6.764E-01
   1    2    2     1     2    2.3818E+01  2.6594E+00   2.1159E+01  0.000E+00  0.000E+00  0.000E+00  1.08920E+03  1.141E+00  1.255E+01  8.783E-01  1.009E+00
   1    3    3     1     3    2.1159E+01  2.9261E+00   1.8233E+01  0.000E+00  0.000E+00  0.000E+00  1.08351E+03  1.095E+00  1.191E+01  7.145E-01  1.365E+00
   1    3    4     1     4    1.8233E+01  2.4866E+00   1.5746E+01  0.000E+00  0.000E+00  0.000E+00  1.07846E+03  1.049E+00  1.106E+01  6.141E-01  1.350E+00
   1    4    5     2     1    5.7460E+00  2.6726E+00   3.0734E+00  0.000E+00  0.000E+00  0.000E+00  1.07236E+03  4.264E-01  1.200E+01  7.800E-01  1.142E+00
   1    5    6     2     2    3.0734E+00  1.9635E+00   1.1099E+00  0.000E+00  0.000E+00  0.000E+00  1.06678E+03  2.725E-01  1.200E+01  6.000E-01  1.091E+00
   1    6    6     2     3    1.1099E+00  1.1099E+00   0.0000E+00  0.000E+00  0.000E+00  0.000E+00  1.06183E+03  4.193E-02  1.200E+01  6.000E-01  1.014E+00
   1    7    6     2     4    0.0000E+00  0.0000E+00   0.0000E+00  0.000E+00  0.000E+00  0.000E+00  1.05708E+03  0.000E+00  1.200E+01  6.000E-01  1.000E+00
   1    8    6     2     5    0.0000E+00  0.0000E+00   0.0000E+00  0.000E+00  0.000E+00  0.000E+00  1.05236E+03  0.000E+00  1.200E+01  6.000E-01  1.000E+00
   1    3    5     3     1    1.0000E+01  1.7519E+00   8.2481E+00  0.000E+00  0.000E+00  0.000E+00  1.07555E+03  1.909E+00  9.636E+00  7.227E-01  1.212E+00
   1    3    6     3     2    8.2481E+00  1.5118E+00   6.7363E+00  0.000E+00  0.000E+00  0.000E+00  1.07264E+03  1.727E+00  8.909E+00  6.682E-01  1.131E+00
   1    3    7     3     3    6.7363E+00  1.0796E+00   5.6567E+00  0.000E+00  0.000E+00  0.000E+00  1.06987E+03  1.555E+00  8.218E+00  5.547E-01  9.731E-01
   1    4    8     3     4    5.6567E+00  1.5875E+00   4.0692E+00  0.000E+00  0.000E+00  0.000E+00  1.06682E+03  1.364E+00  7.455E+00  6.709E-01  1.183E+00
   1    5    8     3     5    4.0692E+00  1.4879E+00   2.5813E+00  0.000E+00  0.000E+00  0.000E+00  1.06362E+03  1.164E+00  6.655E+00  4.991E-01  1.491E+00
   1    6    8     3     6    2.5813E+00  5.5980E-01   2.0215E+00  0.000E+00  0.000E+00  0.000E+00  1.06158E+03  1.036E+00  6.145E+00  1.844E-01  1.518E+00
   1    5   10     4     1    1.0000E+01  9.0525E-01   9.0947E+00  0.000E+00  0.000E+00  0.000E+00  1.07835E+03  6.210E-01  1.000E+01  2.500E-01  1.207E+00
   1    5    9     4     2    9.0947E+00  1.7835E+00   7.3113E+00  0.000E+00  0.000E+00  0.000E+00  1.07148E+03  5.670E-01  1.000E+01  5.000E-01  1.189E+00
   1    6    8     4     3    7.3113E+00  1.2257E+00   6.0855E+00  0.000E+00  0.000E+00  0.000E+00  1.06368E+03  5.021E-01  1.000E+01  3.500E-01  1.167E+00
   1    6    8     5     1    8.1070E+00  2.7095E-01   7.8361E+00  0.000E+00  0.000E+00  0.000E+00  1.05862E+03  6.204E-01  1.320E+01  5.282E-01  1.710E-01
   1    7    7     5     2    7.8361E+00  1.2440E+00   6.5921E+00  0.000E+00  0.000E+00  0.000E+00  1.05410E+03  5.991E-01  1.244E+01  6.218E-01  6.668E-01
   1    8    7     5     3    6.5921E+00  9.1641E-01   5.6757E+00  0.000E+00  0.000E+00  0.000E+00  1.04982E+03  5.660E-01  1.128E+01  3.949E-01  7.735E-01
   1    8    6     5     4    5.6757E+00  8.3524E-01   4.8405E+00  0.000E+00  0.000E+00  0.000E+00  1.04679E+03  5.363E-01  1.029E+01  2.572E-01  1.083E+00
   1    9    6     6     1    4.8405E+00  1.8056E+00   3.0349E+00  0.000E+00  0.000E+00  0.000E+00  1.04313E+03  4.028E-01  1.200E+01  6.000E-01  1.003E+00
   1   10    7     6     2    3.0349E+00  1.1449E+00   1.8899E+00  0.000E+00  0.000E+00  0.000E+00  1.03849E+03  3.039E-01  1.200E+01  6.000E-01  6.361E-01
   1   11    7     6     3    1.8899E+00  8.0711E-01   1.0828E+00  0.000E+00  0.000E+00  0.000E+00  1.03386E+03  2.245E-01  1.200E+01  6.000E-01  4.484E-01
   1   12    7     6     4    1.0828E+00  3.9748E-01   6.8536E-01  0.000E+00  0.000E+00  0.000E+00  1.02926E+03  1.644E-01  1.200E+01  6.000E-01  2.208E-01
   1   13    7     6     5    6.8536E-01 -7.9430E-01   1.4797E+00  0.000E+00  0.000E+00  0.000E+00  1.02609E+03  1.856E-01  1.200E+01  2.400E-01 -1.103E+00
   1   14    9     7     1    1.5000E+02  1.7346E+00   1.4827E+02  0.000E+00  0.000E+00  0.000E+00  1.03987E+03  2.287E+00  5.529E+01  5.592E+00  1.034E-01
   1   13    8     7     2    1.4827E+02  1.7182E+00   1.4655E+02  0.000E+00  0.000E+00  0.000E+00  1.03478E+03  2.277E+00  5.525E+01  6.147E+00  9.318E-02
   1   13    7     7     3    1.4655E+02  1.5841E+00   1.4496E+02  0.000E+00  0.000E+00  0.000E+00  1.02969E+03  2.269E+00  5.521E+01  5.584E+00  9.457E-02
   1   13    6     8     1    1.4644E+02  3.9950E-01   1.4604E+02  0.000E+00  0.000E+00  0.000E+00  1.02467E+03  2.790E+00  4.046E+01  4.123E+00  3.230E-02
   1   13    5     8     2    1.4604E+02 -2.4888E-01   1.4629E+02  0.000E+00  0.000E+00  0.000E+00  1.01841E+03  2.790E+00  4.045E+01  4.122E+00 -2.013E-02
   1   13    4     8     3    1.4629E+02 -1.0664E+00   1.4736E+02  0.000E+00  0.000E+00  0.000E+00  1.01217E+03  2.794E+00  4.052E+01  4.129E+00 -8.609E-02
   1   13    3     8     4    1.4736E+02 -1.7336E+00   1.4909E+02  0.000E+00  0.000E+00  0.000E+00  1.00593E+03  2.804E+00  4.066E+01  4.144E+00 -1.395E-01
   1   13    2     8     5    1.4909E+02 -1.8964E+00   1.5099E+02  0.000E+00  0.000E+00  0.000E+00  9.99692E+02  2.817E+00  4.085E+01  4.163E+00 -1.519E-01
   1   13    1     8     6    1.5099E+02 -1.8201E+00   1.5281E+02  0.000E+00  0.000E+00  0.000E+00  9.94705E+02  2.830E+00  4.104E+01  2.509E+00 -2.418E-01



 UBDSV3 SAVING "           GW ET" ON UNIT  61 AT TIME STEP 5, STRESS PERIOD 11
 UBDSV3 SAVING "    UZF RECHARGE" ON UNIT  61 AT TIME STEP 5, STRESS PERIOD 11
 UBDSV3 SAVING " SURFACE LEAKAGE" ON UNIT  61 AT TIME STEP 5, STRESS PERIOD 11
 UBDSV3 SAVING "       HORT+DUNN" ON UNIT  61 AT TIME STEP 5, STRESS PERIOD 11
 UBDSV3 SAVING "  STORAGE CHANGE" ON UNIT  61 AT TIME STEP 5, STRESS PERIOD 11


UNSATURATED ZONE PACKAGE VOLUMETRIC BUDGET FOR  TIME STEP     5 STRESS PERIOD   11
  ------------------------------------------------------------------------------



     CUMULATIVE VOLUMES      L**3       RATES FOR THIS TIME STEP      L**3/T
     ------------------                 ------------------------

           IN:                                      IN:
           ---                                      ---
        INFILTRATION =  1496523612.7400          INFILTRATION =           8.4750

          OUT:                                     OUT:
          ----                                     ----
              UZF ET =  1931349210.2085                UZF ET =          47.7907
        UZF RECHARGE =   351258524.8191          UZF RECHARGE =          10.3832

            IN - OUT =  -786084122.2876              IN - OUT =         -49.6989

          STORAGE:                                 STORAGE:
          --------                                 --------
      STORAGE CHANGE =  -785830295.8661        STORAGE CHANGE =         -49.6989

 PERCENT DISCREPANCY IS DIFFERENCE BETWEEN IN-OUT MINUS CHANGE IN STORAGE
 DIVIDED BY THE AVERAGE OF IN AND OUT TIMES 100

 PERCENT DISCREPANCY =          -0.00     PERCENT DISCREPANCY =          -0.00






1
  VOLUMETRIC BUDGET FOR ENTIRE MODEL AT END OF TIME STEP    5, STRESS PERIOD  11
  ------------------------------------------------------------------------------

     CUMULATIVE VOLUMES      L**3       RATES FOR THIS TIME STEP      L**3/T
     ------------------                 ------------------------

           IN:                                      IN:
           ---                                      ---
             STORAGE     =    84567208.0000               STORAGE     =          16.2008
       CONSTANT HEAD     =           0.0000         CONSTANT HEAD     =           0.0000
               WELLS     =           0.0000                 WELLS     =           0.0000
     HEAD DEP BOUNDS     =     5536753.0000       HEAD DEP BOUNDS     =           0.2068
      STREAM LEAKAGE     =  1058590208.0000        STREAM LEAKAGE     =          39.7510
        UZF RECHARGE     =   351258496.0000          UZF RECHARGE     =          10.3832
               GW ET     =           0.0000                 GW ET     =           0.0000
     SURFACE LEAKAGE     =           0.0000       SURFACE LEAKAGE     =           0.0000

                TOTAL IN =  1499952640.0000                  TOTAL IN =          66.5418

          OUT:                                     OUT:
          ----                                     ----
             STORAGE     =   429509312.0000               STORAGE     =           8.1223
       CONSTANT HEAD     =           0.0000         CONSTANT HEAD     =           0.0000
               WELLS     =   330509088.0000                 WELLS     =          30.0000
     HEAD DEP BOUNDS     =     7580552.5000       HEAD DEP BOUNDS     =           0.2824
      STREAM LEAKAGE     =   215022960.0000        STREAM LEAKAGE     =           7.5596
        UZF RECHARGE     =           0.0000          UZF RECHARGE     =           0.0000
               GW ET     =   517320224.0000                 GW ET     =          20.5772
     SURFACE LEAKAGE     =           0.0000       SURFACE LEAKAGE     =           0.0000

               TOTAL OUT =  1499942144.0000                 TOTAL OUT =          66.5415

                IN - OUT =       10496.0000                  IN - OUT =       2.2888E-04

     PERCENT DISCREPANCY =           0.00         PERCENT DISCREPANCY =           0.00






         TIME SUMMARY AT END OF TIME STEP    5 IN STRESS PERIOD   11
                    SECONDS     MINUTES      HOURS       DAYS        YEARS
                    -----------------------------------------------------------
   TIME STEP LENGTH 1.21100E+05  2018.3      33.639      1.4016     3.83743E-03
 STRESS PERIOD TIME 5.04972E+05  8416.2      140.27      5.8446     1.60016E-02
         TOTAL TIME 2.67850E+07 4.46416E+05  7440.3      310.01     0.84876    
1
 
 SOLVING FOR HEAD 
                                                   Max.-Head-Change                         Max.-Flux-Residual
  Residual-Control   Outer-Iter.   Inner-Iter.     Column Row Layer    Maximum-Head-Change  Column Row Layer    Maximum-Flux-Residual          L2-NORM 
          0                 1           2             5    6     1      -0.4816853833E-01       5    6    1        -0.1654767330E+01      0.4937857985E+01
          0                 2           2             4   15     2       0.9976227839E-02       4   15    2         0.1721323249E+00      0.5646622462E+00
          0                 3           2             4   15     1       0.6296807142E-02       4   15    2         0.5237471722E-01      0.8985770126E-01
          0                 4           2             4   15     1       0.5349065776E-02       4   15    2         0.1652026439E-01      0.2674591931E-01
          0                 5           2             4   15     1       0.4434903085E-02       4   15    1         0.8977463504E-02      0.1173732148E-01
          0                 6           2             4   15     1       0.3645717577E-02       4   15    1         0.7427131193E-02      0.7900309404E-02
          0                 7           2             4   15     1       0.2987790590E-02       4   15    1         0.6100764503E-02      0.6229421819E-02
          0                 8           2             4   15     1       0.2445879927E-02       4   15    1         0.4998389272E-02      0.5059424701E-02
          0                 9           2             4   15     1       0.2001451480E-02       4   15    1         0.4091391778E-02      0.4131556639E-02
          0                10           2             4   15     1       0.1637538026E-02       4   15    1         0.3347842746E-02      0.3378140804E-02
                                                   Max.-Head-Change                         Max.-Flux-Residual
  Residual-Control   Outer-Iter.   Inner-Iter.     Column Row Layer    Maximum-Head-Change  Column Row Layer    Maximum-Flux-Residual          L2-NORM 
          0                11           2             4   15     1       0.1339721741E-02       4   15    1         0.2739085598E-02      0.2763147398E-02
          0                12           1             4   15     1       0.1096047609E-02       4   15    1         0.2240921989E-02      0.2260396457E-02
          0                13           1             4   15     1       0.8966876436E-03       4   15    1         0.1833330711E-02      0.1849202019E-02
          0                14           1             4   15     1       0.7335873733E-03       4   15    1         0.1499865534E-02      0.1512833061E-02
          0                15           1             4   15     1       0.6001531814E-03       4   15    1         0.1227051829E-02      0.1237656667E-02
          0                16           1             4   15     1       0.4909895364E-03       4   15    1         0.1003860006E-02      0.1012535603E-02
          0                17           1             4   15     1       0.4016819449E-03       4   15    1         0.8212649273E-03      0.8283631757E-03
          0                18           1             4   15     1       0.3286187736E-03       4   15    1         0.6718825437E-03      0.6776906822E-03
          0                19           1             4   15     1       0.2688452859E-03       4   15    1         0.5496717589E-03      0.5544243326E-03
          0                20           1             4   15     1       0.2199441827E-03       4   15    1         0.4496902651E-03      0.4535790029E-03
                                                   Max.-Head-Change                         Max.-Flux-Residual
  Residual-Control   Outer-Iter.   Inner-Iter.     Column Row Layer    Maximum-Head-Change  Column Row Layer    Maximum-Flux-Residual          L2-NORM 
          0                21           1             4   15     1       0.1799378541E-03       4   15    1         0.3678947135E-03      0.3710767924E-03
          0                22           1             4   15     1       0.1472084005E-03       4   15    1         0.3009772075E-03      0.3035816217E-03
          0                23           1             4   15     1       0.1204322090E-03       4   15    1         0.2462315336E-03      0.2483635034E-03
          0                24           1             4   15     1       0.9852642188E-04       4   15    1         0.2014437196E-03      0.2031877283E-03

    ------------------------------------------------
       NWT REQUIRED           24 OUTER ITERATIONS 
       AND A TOTAL OF         35 INNER ITERATIONS.
    ------------------------------------------------

 NO OUTPUT CONTROL FOR STRESS PERIOD   11   TIME STEP    6
 
 SOLVING FOR HEAD 
                                                   Max.-Head-Change                         Max.-Flux-Residual
  Residual-Control   Outer-Iter.   Inner-Iter.     Column Row Layer    Maximum-Head-Change  Column Row Layer    Maximum-Flux-Residual          L2-NORM 
          0                 1           2             5   10     1      -0.5260362077E-01       5    6    1        -0.1643715708E+01      0.4916297562E+01
          0                 2           2             4   15     2       0.1087720143E-01       4   15    2         0.1706132039E+00      0.5624081533E+00
          0                 3           2             4   15     1       0.7223901921E-02       4   15    2         0.5191373213E-01      0.8965646362E-01
          0                 4           2             4   15     1       0.6037291700E-02       4   15    2         0.1645959378E-01      0.2701483809E-01
          0                 5           2             4   15     1       0.4921194504E-02       4   15    1         0.9195389855E-02      0.1213706669E-01
          0                 6           2             4   15     1       0.3975965576E-02       4   15    1         0.7478574736E-02      0.8171884650E-02
          0                 7           2             4   15     1       0.3201926283E-02       4   15    1         0.6037206825E-02      0.6352520313E-02
          0                 8           2             4   15     1       0.2575521215E-02       4   15    1         0.4860431439E-02      0.5076588817E-02
          0                 9           2             4   15     1       0.2070758510E-02       4   15    1         0.3909136833E-02      0.4078993582E-02
          0                10           2             4   15     1       0.1664654026E-02       4   15    1         0.3142878863E-02      0.3282010168E-02
                                                   Max.-Head-Change                         Max.-Flux-Residual
  Residual-Control   Outer-Iter.   Inner-Iter.     Column Row Layer    Maximum-Head-Change  Column Row Layer    Maximum-Flux-Residual          L2-NORM 
          0                11           2             4   15     1       0.1338113044E-02       4   15    1         0.2526479229E-02      0.2642022729E-02
          0                12           1             4   15     1       0.1075603371E-02       4   15    1         0.2030870353E-02      0.2127305774E-02
          0                13           1             4   15     1       0.8645856459E-03       4   15    1         0.1632453056E-02      0.1713103295E-02
          0                14           1             4   15     1       0.6949644796E-03       4   15    1         0.1312188628E-02      0.1379703332E-02
          0                15           1             4   15     1       0.5586203188E-03       4   15    1         0.1054752974E-02      0.1111305414E-02
          0                16           1             4   15     1       0.4490251629E-03       4   15    1         0.8478223323E-03      0.8952138639E-03
          0                17           1             4   15     1       0.3609313209E-03       4   15    1         0.6814889228E-03      0.7212188126E-03
          0                18           1             4   15     1       0.2901205168E-03       4   15    1         0.5477882312E-03      0.5811075057E-03
          0                19           1             4   15     1       0.2332020201E-03       4   15    1         0.4403181389E-03      0.4682706284E-03
          0                20           1             4   15     1       0.1874503142E-03       4   15    1         0.3539325041E-03      0.3773894318E-03
                                                   Max.-Head-Change                         Max.-Flux-Residual
  Residual-Control   Outer-Iter.   Inner-Iter.     Column Row Layer    Maximum-Head-Change  Column Row Layer    Maximum-Flux-Residual          L2-NORM 
          0                21           1             4   15     1       0.1506745972E-03       4   15    1         0.2844947910E-03      0.3041849280E-03
          0                22           1             4   15     1       0.1211138767E-03       4   15    1         0.2286800033E-03      0.2452149050E-03
          0                23           1             4   15     1       0.9735264925E-04       4   15    1         0.1838154709E-03      0.1977024580E-03

    ------------------------------------------------
       NWT REQUIRED           23 OUTER ITERATIONS 
       AND A TOTAL OF         34 INNER ITERATIONS.
    ------------------------------------------------

 NO OUTPUT CONTROL FOR STRESS PERIOD   11   TIME STEP    7
 
 SOLVING FOR HEAD 
                                                   Max.-Head-Change                         Max.-Flux-Residual
  Residual-Control   Outer-Iter.   Inner-Iter.     Column Row Layer    Maximum-Head-Change  Column Row Layer    Maximum-Flux-Residual          L2-NORM 
          0                 1           2             5   10     1      -0.5741360496E-01       5   10    1        -0.1632007909E+01      0.4940655093E+01
          0                 2           2            10   10     2       0.1237821648E-01      10   10    2         0.1762200783E+00      0.5973205539E+00
          0                 3           2             4   15     1       0.8261948752E-02      10   10    2         0.5373563249E-01      0.1108223731E+00
          0                 4           2             4   15     1       0.6786736879E-02      10   10    2         0.1702395761E-01      0.3659073052E-01
          0                 5           2            10   10     1       0.5514012196E-02       4   15    1         0.9379613018E-02      0.1822918371E-01
          0                 6           2            10   10     1       0.4496863943E-02      10   10    1         0.7624579678E-02      0.1272660709E-01
          0                 7           2            10   10     1       0.3655675777E-02      10   10    1         0.6213111634E-02      0.9875324188E-02
          0                 8           2            10   10     1       0.2968383863E-02      10   10    1         0.5049401861E-02      0.7831309212E-02
          0                 9           2            10   10     1       0.2409279958E-02      10   10    1         0.4099640816E-02      0.6242051432E-02
          0                10           2            10   10     1       0.1955179200E-02      10   10    1         0.3327330828E-02      0.4983679145E-02
                                                   Max.-Head-Change                         Max.-Flux-Residual
  Residual-Control   Outer-Iter.   Inner-Iter.     Column Row Layer    Maximum-Head-Change  Column Row Layer    Maximum-Flux-Residual          L2-NORM 
          0                11           2            10   10     1       0.1586576301E-02      10   10    1         0.2700157253E-02      0.3982208472E-02
          0                12           1            10   10     1       0.1287437704E-02      10   10    1         0.2191094881E-02      0.3183700612E-02
          0                13           1            10   10     1       0.1044691685E-02      10   10    1         0.1777974905E-02      0.2546457377E-02
          0                14           1            10   10     1       0.8477129703E-03      10   10    1         0.1442737274E-02      0.2037612253E-02
          0                15           1            10   10     1       0.6878742810E-03      10   10    1         0.1170706003E-02      0.1631114063E-02
          0                16           1            10   10     1       0.5581734234E-03      10   10    1         0.9499659973E-03      0.1306224444E-02
          0                17           1            10   10     1       0.4529280105E-03      10   10    1         0.7708469150E-03      0.1046456871E-02
          0                18           1            10   10     1       0.3675269459E-03      10   10    1         0.6255012287E-03      0.8386822288E-03
          0                19           1            10   10     1       0.2982285286E-03      10   10    1         0.5075609229E-03      0.6724746112E-03
          0                20           1            10   10     1       0.2419965557E-03      10   10    1         0.4118586424E-03      0.5393882816E-03
                                                   Max.-Head-Change                         Max.-Flux-Residual
  Residual-Control   Outer-Iter.   Inner-Iter.     Column Row Layer    Maximum-Head-Change  Column Row Layer    Maximum-Flux-Residual          L2-NORM 
          0                21           1            10   10     1       0.1963673071E-03      10   10    1         0.3342013403E-03      0.4327509663E-03
          0                22           1            10   10     1       0.1593416044E-03      10   10    1         0.2711865779E-03      0.3474489979E-03
          0                23           1            10   10     1       0.1292972199E-03      10   10    1         0.2200534565E-03      0.2790051687E-03
          0                24           1            10   10     1       0.1049178032E-03      10   10    1         0.1785616533E-03      0.2240597773E-03
          0                25           1            10   10     1       0.8513520625E-04      10   10    1         0.1448932663E-03      0.1800492666E-03

    ------------------------------------------------
       NWT REQUIRED           25 OUTER ITERATIONS 
       AND A TOTAL OF         36 INNER ITERATIONS.
    ------------------------------------------------

 NO OUTPUT CONTROL FOR STRESS PERIOD   11   TIME STEP    8
 
 SOLVING FOR HEAD 
                                                   Max.-Head-Change                         Max.-Flux-Residual
  Residual-Control   Outer-Iter.   Inner-Iter.     Column Row Layer    Maximum-Head-Change  Column Row Layer    Maximum-Flux-Residual          L2-NORM 
          0                 1           2             5   10     1      -0.6261672826E-01       5   10    1        -0.1619303355E+01      0.4930133865E+01
          0                 2           2             3   15     2       0.1367446874E-01       3   15    2         0.1766587266E+00      0.6059856050E+00
          0                 3           2             3   15     1       0.9849024782E-02       3   15    2         0.5399796588E-01      0.1168480346E+00
          0                 4           2             3   15     1       0.7947995993E-02       3   15    2         0.1739324906E-01      0.3978238868E-01
          0                 5           2             3   15     1       0.6244378881E-02       3   15    1         0.9965523291E-02      0.2031489819E-01
          0                 6           2            10   10     1       0.4915211569E-02       3   15    1         0.7809870438E-02      0.1406322119E-01
          0                 7           2            10   10     1       0.3924168478E-02      10   10    1         0.6161632104E-02      0.1069383310E-01
          0                 8           2            10   10     1       0.3129054858E-02      10   10    1         0.4917733602E-02      0.8300024592E-02
          0                 9           2            10   10     1       0.2493894775E-02      10   10    1         0.3920847915E-02      0.6475423808E-02
          0                10           2            10   10     1       0.1987323051E-02      10   10    1         0.3124828450E-02      0.5061022825E-02
                                                   Max.-Head-Change                         Max.-Flux-Residual
  Residual-Control   Outer-Iter.   Inner-Iter.     Column Row Layer    Maximum-Head-Change  Column Row Layer    Maximum-Flux-Residual          L2-NORM 
          0                11           2            10   10     1       0.1583547371E-02      10   10    1         0.2490058582E-02      0.3959090626E-02
          0                12           1            10   10     1       0.1261779088E-02      10   10    1         0.1984127525E-02      0.3098946809E-02
          0                13           1            10   10     1       0.1005383499E-02      10   10    1         0.1580960081E-02      0.2426896281E-02
          0                14           1            10   10     1       0.8010852895E-03      10   10    1         0.1259705405E-02      0.1901480169E-02
          0                15           1            10   10     1       0.6383005720E-03      10   10    1         0.1003727629E-02      0.1490496964E-02
          0                16           1            10   10     1       0.5085943330E-03      10   10    1         0.7997648619E-03      0.1168874917E-02
          0                17           1            10   10     1       0.4052450604E-03      10   10    1         0.6372481667E-03      0.9170673173E-03
          0                18           1            10   10     1       0.3228969320E-03      10   10    1         0.5077557025E-03      0.7198332660E-03
          0                19           1            10   10     1       0.2572824127E-03      10   10    1         0.4045768259E-03      0.5652746696E-03
          0                20           1            10   10     1       0.2050011414E-03      10   10    1         0.3223644842E-03      0.4441029254E-03
                                                   Max.-Head-Change                         Max.-Flux-Residual
  Residual-Control   Outer-Iter.   Inner-Iter.     Column Row Layer    Maximum-Head-Change  Column Row Layer    Maximum-Flux-Residual          L2-NORM 
          0                21           1            10   10     1       0.1633437262E-03      10   10    1         0.2568581627E-03      0.3490626931E-03
          0                22           1            10   10     1       0.1301513381E-03      10   10    1         0.2046631031E-03      0.2744846401E-03
          0                23           1            10   10     1       0.1037038358E-03      10   10    1         0.1630743806E-03      0.2159362695E-03
          0                24           1            10   10     1       0.8263061802E-04      10   10    1         0.1299367263E-03      0.1699512274E-03

    ------------------------------------------------
       NWT REQUIRED           24 OUTER ITERATIONS 
       AND A TOTAL OF         35 INNER ITERATIONS.
    ------------------------------------------------

 NO OUTPUT CONTROL FOR STRESS PERIOD   11   TIME STEP    9
 
 SOLVING FOR HEAD 
                                                   Max.-Head-Change                         Max.-Flux-Residual
  Residual-Control   Outer-Iter.   Inner-Iter.     Column Row Layer    Maximum-Head-Change  Column Row Layer    Maximum-Flux-Residual          L2-NORM 
          0                 1           2             5   10     1      -0.6823591700E-01       5   10    1        -0.1605500267E+01      0.4882944676E+01
          0                 2           2             3   15     2       0.1493398507E-01       3   15    2         0.1754018599E+00      0.5867523896E+00
          0                 3           2             3   15     1       0.1120302350E-01       3   15    2         0.5360940804E-01      0.1073998045E+00
          0                 4           2             3   15     1       0.8861480981E-02       3   15    2         0.1737842304E-01      0.3630614635E-01
          0                 5           2             3   15     1       0.6818671964E-02       3   15    1         0.1007839890E-01      0.1859061620E-01
          0                 6           2            10   10     1       0.5314423627E-02       3   15    1         0.7734710250E-02      0.1273281732E-01
          0                 7           2            10   10     1       0.4161448561E-02      10   10    1         0.6043494770E-02      0.9518305432E-02
          0                 8           2            10   10     1       0.3254260297E-02      10   10    1         0.4730745155E-02      0.7254321444E-02
          0                 9           2            10   10     1       0.2543554775E-02      10   10    1         0.3698979846E-02      0.5556855689E-02
          0                10           1            10   10     1       0.1987683510E-02      10   10    1         0.2891012098E-02      0.4264488352E-02
                                                   Max.-Head-Change                         Max.-Flux-Residual
  Residual-Control   Outer-Iter.   Inner-Iter.     Column Row Layer    Maximum-Head-Change  Column Row Layer    Maximum-Flux-Residual          L2-NORM 
          0                11           1            10   10     1       0.1553181302E-02      10   10    1         0.2259166255E-02      0.3275877534E-02
          0                12           1            10   10     1       0.1213627147E-02      10   10    1         0.1765306667E-02      0.2518180147E-02
          0                13           1            10   10     1       0.9482960936E-03      10   10    1         0.1379374491E-02      0.1936866635E-02
          0                14           1            10   10     1       0.7409705777E-03      10   10    1         0.1077805673E-02      0.1490560632E-02
          0                15           1            10   10     1       0.5789716986E-03      10   10    1         0.8421652615E-03      0.1147701992E-02
          0                16           1            10   10     1       0.4523904948E-03      10   10    1         0.6580420513E-03      0.8841673082E-03
          0                17           1            10   10     1       0.3534838044E-03      10   10    1         0.5141735964E-03      0.6814957592E-03
          0                18           1            10   10     1       0.2762011855E-03      10   10    1         0.4017591901E-03      0.5255484790E-03
          0                19           1            10   10     1       0.2158149597E-03      10   10    1         0.3139220639E-03      0.4054915238E-03
          0                20           1            10   10     1       0.1686310524E-03      10   10    1         0.2452888755E-03      0.3130136489E-03
                                                   Max.-Head-Change                         Max.-Flux-Residual
  Residual-Control   Outer-Iter.   Inner-Iter.     Column Row Layer    Maximum-Head-Change  Column Row Layer    Maximum-Flux-Residual          L2-NORM 
          0                21           1            10   10     1       0.1317630241E-03      10   10    1         0.1916610486E-03      0.2417445801E-03
          0                22           1            10   10     1       0.1029555015E-03      10   10    1         0.1497579433E-03      0.1867927916E-03
          0                23           1            10   10     1       0.8044620544E-04      10   10    1         0.1170161686E-03      0.1443988465E-03

    ------------------------------------------------
       NWT REQUIRED           23 OUTER ITERATIONS 
       AND A TOTAL OF         32 INNER ITERATIONS.
    ------------------------------------------------

 OUTPUT CONTROL FOR STRESS PERIOD   11   TIME STEP   10
    PRINT BUDGET
    SAVE BUDGET

            WELLS   PERIOD   11   STEP  10
 WELL      1   LAYER   1   ROW     6   COL     4   RATE    -3.00000    
 WELL      2   LAYER   1   ROW     6   COL     5   RATE    -3.00000    
 WELL      3   LAYER   1   ROW     7   COL     4   RATE    -3.00000    
 WELL      4   LAYER   1   ROW     7   COL     5   RATE    -3.00000    
 WELL      5   LAYER   1   ROW     8   COL     4   RATE    -3.00000    
 WELL      6   LAYER   1   ROW     8   COL     5   RATE    -3.00000    
 WELL      7   LAYER   1   ROW     9   COL     4   RATE    -3.00000    
 WELL      8   LAYER   1   ROW     9   COL     5   RATE    -3.00000    
 WELL      9   LAYER   1   ROW    10   COL     4   RATE    -3.00000    
 WELL     10   LAYER   1   ROW    10   COL     5   RATE    -3.00000    

  HEAD DEP BOUNDS   PERIOD   11   STEP    10
 BOUNDARY      1   LAYER   1   ROW    13   COL     1   RATE   -0.282313    
 BOUNDARY      2   LAYER   1   ROW    14   COL     9   RATE    0.206872    



 STREAM LISTING     PERIOD     11   STEP       10

 LAYER ROW COL. STREAM  RCH.  FLOW INTO     FLOW TO   FLOW OUT OF   OVRLND.     DIRECT     STREAM       STREAM     STREAM     STREAM   STREAMBED  STREAMBED
                SEG.NO.  NO.  STRM. RCH.    AQUIFER    STRM. RCH.    RUNOFF     PRECIP       ET          HEAD       DEPTH      WIDTH   CONDCTNC.   GRADIENT

   1    1    1     1     1    2.5000E+01  1.1836E+00   2.3816E+01  0.000E+00  0.000E+00  0.000E+00  1.09422E+03  1.171E+00  1.294E+01  5.825E-01  6.773E-01
   1    2    2     1     2    2.3816E+01  2.6609E+00   2.1155E+01  0.000E+00  0.000E+00  0.000E+00  1.08920E+03  1.141E+00  1.255E+01  8.783E-01  1.010E+00
   1    3    3     1     3    2.1155E+01  2.9258E+00   1.8230E+01  0.000E+00  0.000E+00  0.000E+00  1.08351E+03  1.095E+00  1.191E+01  7.145E-01  1.365E+00
   1    3    4     1     4    1.8230E+01  2.4863E+00   1.5743E+01  0.000E+00  0.000E+00  0.000E+00  1.07846E+03  1.049E+00  1.106E+01  6.140E-01  1.350E+00
   1    4    5     2     1    5.7433E+00  2.6725E+00   3.0709E+00  0.000E+00  0.000E+00  0.000E+00  1.07236E+03  4.262E-01  1.200E+01  7.800E-01  1.142E+00
   1    5    6     2     2    3.0709E+00  1.9634E+00   1.1075E+00  0.000E+00  0.000E+00  0.000E+00  1.06678E+03  2.724E-01  1.200E+01  6.000E-01  1.091E+00
   1    6    6     2     3    1.1075E+00  1.1075E+00   0.0000E+00  0.000E+00  0.000E+00  0.000E+00  1.06183E+03  4.187E-02  1.200E+01  6.000E-01  1.014E+00
   1    7    6     2     4    0.0000E+00  0.0000E+00   0.0000E+00  0.000E+00  0.000E+00  0.000E+00  1.05708E+03  0.000E+00  1.200E+01  6.000E-01  1.000E+00
   1    8    6     2     5    0.0000E+00  0.0000E+00   0.0000E+00  0.000E+00  0.000E+00  0.000E+00  1.05236E+03  0.000E+00  1.200E+01  6.000E-01  1.000E+00
   1    3    5     3     1    1.0000E+01  1.7923E+00   8.2077E+00  0.000E+00  0.000E+00  0.000E+00  1.07555E+03  1.909E+00  9.636E+00  7.227E-01  1.240E+00
   1    3    6     3     2    8.2077E+00  1.5392E+00   6.6686E+00  0.000E+00  0.000E+00  0.000E+00  1.07264E+03  1.727E+00  8.909E+00  6.682E-01  1.152E+00
   1    3    7     3     3    6.6686E+00  1.0962E+00   5.5723E+00  0.000E+00  0.000E+00  0.000E+00  1.06987E+03  1.555E+00  8.218E+00  5.547E-01  9.881E-01
   1    4    8     3     4    5.5723E+00  1.5923E+00   3.9800E+00  0.000E+00  0.000E+00  0.000E+00  1.06682E+03  1.364E+00  7.455E+00  6.709E-01  1.187E+00
   1    5    8     3     5    3.9800E+00  1.4882E+00   2.4919E+00  0.000E+00  0.000E+00  0.000E+00  1.06362E+03  1.164E+00  6.655E+00  4.991E-01  1.491E+00
   1    6    8     3     6    2.4919E+00  5.5980E-01   1.9321E+00  0.000E+00  0.000E+00  0.000E+00  1.06158E+03  1.036E+00  6.145E+00  1.844E-01  1.518E+00
   1    5   10     4     1    1.0000E+01  9.0525E-01   9.0947E+00  0.000E+00  0.000E+00  0.000E+00  1.07835E+03  6.210E-01  1.000E+01  2.500E-01  1.207E+00
   1    5    9     4     2    9.0947E+00  1.7835E+00   7.3113E+00  0.000E+00  0.000E+00  0.000E+00  1.07148E+03  5.670E-01  1.000E+01  5.000E-01  1.189E+00
   1    6    8     4     3    7.3113E+00  1.2257E+00   6.0855E+00  0.000E+00  0.000E+00  0.000E+00  1.06368E+03  5.021E-01  1.000E+01  3.500E-01  1.167E+00
   1    6    8     5     1    8.0176E+00  2.6924E-01   7.7484E+00  0.000E+00  0.000E+00  0.000E+00  1.05862E+03  6.180E-01  1.312E+01  5.246E-01  1.711E-01
   1    7    7     5     2    7.7484E+00  1.2367E+00   6.5117E+00  0.000E+00  0.000E+00  0.000E+00  1.05410E+03  5.966E-01  1.235E+01  6.175E-01  6.676E-01
   1    8    7     5     3    6.5117E+00  9.0936E-01   5.6023E+00  0.000E+00  0.000E+00  0.000E+00  1.04981E+03  5.635E-01  1.120E+01  3.919E-01  7.734E-01
   1    8    6     5     4    5.6023E+00  8.2364E-01   4.7787E+00  0.000E+00  0.000E+00  0.000E+00  1.04678E+03  5.339E-01  1.021E+01  2.552E-01  1.076E+00
   1    9    6     6     1    4.7787E+00  1.7958E+00   2.9829E+00  0.000E+00  0.000E+00  0.000E+00  1.04313E+03  3.993E-01  1.200E+01  6.000E-01  9.977E-01
   1   10    7     6     2    2.9829E+00  1.1418E+00   1.8411E+00  0.000E+00  0.000E+00  0.000E+00  1.03848E+03  3.002E-01  1.200E+01  6.000E-01  6.343E-01
   1   11    7     6     3    1.8411E+00  8.0334E-01   1.0378E+00  0.000E+00  0.000E+00  0.000E+00  1.03386E+03  2.202E-01  1.200E+01  6.000E-01  4.463E-01
   1   12    7     6     4    1.0378E+00  3.9454E-01   6.4324E-01  0.000E+00  0.000E+00  0.000E+00  1.02925E+03  1.595E-01  1.200E+01  6.000E-01  2.192E-01
   1   13    7     6     5    6.4324E-01 -7.9508E-01   1.4383E+00  0.000E+00  0.000E+00  0.000E+00  1.02609E+03  1.813E-01  1.200E+01  2.400E-01 -1.104E+00
   1   14    9     7     1    1.5000E+02  1.7411E+00   1.4826E+02  0.000E+00  0.000E+00  0.000E+00  1.03987E+03  2.287E+00  5.529E+01  5.592E+00  1.038E-01
   1   13    8     7     2    1.4826E+02  1.7249E+00   1.4653E+02  0.000E+00  0.000E+00  0.000E+00  1.03478E+03  2.277E+00  5.525E+01  6.147E+00  9.354E-02
   1   13    7     7     3    1.4653E+02  1.5896E+00   1.4494E+02  0.000E+00  0.000E+00  0.000E+00  1.02969E+03  2.269E+00  5.521E+01  5.584E+00  9.490E-02
   1   13    6     8     1    1.4638E+02  4.0873E-01   1.4597E+02  0.000E+00  0.000E+00  0.000E+00  1.02466E+03  2.790E+00  4.045E+01  4.122E+00  3.305E-02
   1   13    5     8     2    1.4597E+02 -2.3857E-01   1.4621E+02  0.000E+00  0.000E+00  0.000E+00  1.01841E+03  2.789E+00  4.044E+01  4.121E+00 -1.930E-02
   1   13    4     8     3    1.4621E+02 -1.0590E+00   1.4727E+02  0.000E+00  0.000E+00  0.000E+00  1.01217E+03  2.794E+00  4.051E+01  4.128E+00 -8.551E-02
   1   13    3     8     4    1.4727E+02 -1.7300E+00   1.4900E+02  0.000E+00  0.000E+00  0.000E+00  1.00593E+03  2.804E+00  4.065E+01  4.143E+00 -1.392E-01
   1   13    2     8     5    1.4900E+02 -1.8905E+00   1.5089E+02  0.000E+00  0.000E+00  0.000E+00  9.99691E+02  2.816E+00  4.084E+01  4.162E+00 -1.514E-01
   1   13    1     8     6    1.5089E+02 -1.8182E+00   1.5271E+02  0.000E+00  0.000E+00  0.000E+00  9.94704E+02  2.829E+00  4.103E+01  2.509E+00 -2.416E-01



 UBDSV3 SAVING "           GW ET" ON UNIT  61 AT TIME STEP 10, STRESS PERIOD 11
 UBDSV3 SAVING "    UZF RECHARGE" ON UNIT  61 AT TIME STEP 10, STRESS PERIOD 11
 UBDSV3 SAVING " SURFACE LEAKAGE" ON UNIT  61 AT TIME STEP 10, STRESS PERIOD 11
 UBDSV3 SAVING "       HORT+DUNN" ON UNIT  61 AT TIME STEP 10, STRESS PERIOD 11
 UBDSV3 SAVING "  STORAGE CHANGE" ON UNIT  61 AT TIME STEP 10, STRESS PERIOD 11


UNSATURATED ZONE PACKAGE VOLUMETRIC BUDGET FOR  TIME STEP    10 STRESS PERIOD   11
  ------------------------------------------------------------------------------



     CUMULATIVE VOLUMES      L**3       RATES FOR THIS TIME STEP      L**3/T
     ------------------                 ------------------------

           IN:                                      IN:
           ---                                      ---
        INFILTRATION =  1503416006.6721          INFILTRATION =           8.4750

          OUT:                                     OUT:
          ----                                     ----
              UZF ET =  1967735159.5610                UZF ET =          42.7054
        UZF RECHARGE =   360324223.5335          UZF RECHARGE =          11.3350

            IN - OUT =  -824643376.4225              IN - OUT =         -45.5654

          STORAGE:                                 STORAGE:
          --------                                 --------
      STORAGE CHANGE =  -824388646.0355        STORAGE CHANGE =         -45.5637

 PERCENT DISCREPANCY IS DIFFERENCE BETWEEN IN-OUT MINUS CHANGE IN STORAGE
 DIVIDED BY THE AVERAGE OF IN AND OUT TIMES 100

 PERCENT DISCREPANCY =          -0.00     PERCENT DISCREPANCY =          -0.00






1
  VOLUMETRIC BUDGET FOR ENTIRE MODEL AT END OF TIME STEP   10, STRESS PERIOD  11
  ------------------------------------------------------------------------------

     CUMULATIVE VOLUMES      L**3       RATES FOR THIS TIME STEP      L**3/T
     ------------------                 ------------------------

           IN:                                      IN:
           ---                                      ---
             STORAGE     =    97623280.0000               STORAGE     =          15.9404
       CONSTANT HEAD     =           0.0000         CONSTANT HEAD     =           0.0000
               WELLS     =           0.0000                 WELLS     =           0.0000
     HEAD DEP BOUNDS     =     5704982.0000       HEAD DEP BOUNDS     =           0.2069
      STREAM LEAKAGE     =  1090951680.0000        STREAM LEAKAGE     =          39.8211
        UZF RECHARGE     =   360324128.0000          UZF RECHARGE     =          11.3350
               GW ET     =           0.0000                 GW ET     =           0.0000
     SURFACE LEAKAGE     =           0.0000       SURFACE LEAKAGE     =           0.0000

                TOTAL IN =  1554604032.0000                  TOTAL IN =          67.3033

          OUT:                                     OUT:
          ----                                     ----
             STORAGE     =   436650176.0000               STORAGE     =           8.8932
       CONSTANT HEAD     =           0.0000         CONSTANT HEAD     =           0.0000
               WELLS     =   354906944.0000                 WELLS     =          30.0000
     HEAD DEP BOUNDS     =     7810163.5000       HEAD DEP BOUNDS     =           0.2823
      STREAM LEAKAGE     =   221158544.0000        STREAM LEAKAGE     =           7.5313
        UZF RECHARGE     =           0.0000          UZF RECHARGE     =           0.0000
               GW ET     =   534067552.0000                 GW ET     =          20.5963
     SURFACE LEAKAGE     =           0.0000       SURFACE LEAKAGE     =           0.0000

               TOTAL OUT =  1554593408.0000                 TOTAL OUT =          67.3031

                IN - OUT =       10624.0000                  IN - OUT =       2.4414E-04

     PERCENT DISCREPANCY =           0.00         PERCENT DISCREPANCY =           0.00






         TIME SUMMARY AT END OF TIME STEP   10 IN STRESS PERIOD   11
                    SECONDS     MINUTES      HOURS       DAYS        YEARS
                    -----------------------------------------------------------
   TIME STEP LENGTH 1.95033E+05  3250.6      54.176      2.2573     6.18023E-03
 STRESS PERIOD TIME 1.31823E+06  21971.      366.18      15.257     4.17723E-02
         TOTAL TIME 2.75982E+07 4.59970E+05  7666.2      319.42     0.87454    
1
 
 SOLVING FOR HEAD 
                                                   Max.-Head-Change                         Max.-Flux-Residual
  Residual-Control   Outer-Iter.   Inner-Iter.     Column Row Layer    Maximum-Head-Change  Column Row Layer    Maximum-Flux-Residual          L2-NORM 
          0                 1           2             5   10     1      -0.7429361481E-01       5   10    1        -0.1590522888E+01      0.4846958396E+01
          0                 2           2             3   15     2       0.1630604592E-01       3   15    2         0.1739674893E+00      0.5799994756E+00
          0                 3           2             3   15     1       0.1267610805E-01       3   15    2         0.5322728786E-01      0.1056158221E+00
          0                 4           2             3   15     1       0.9816721152E-02       3   15    2         0.1739308846E-01      0.3612189865E-01
          0                 5           2            10   10     1       0.7405627615E-02       3   15    1         0.1012537465E-01      0.1854884345E-01
          0                 6           2            10   10     1       0.5701483324E-02      10   10    1         0.7645541767E-02      0.1248887781E-01
          0                 7           2            10   10     1       0.4372933615E-02      10   10    1         0.5880528702E-02      0.9133453401E-02
          0                 8           2            10   10     1       0.3349126397E-02      10   10    1         0.4508605662E-02      0.6809605543E-02
          0                 9           2            10   10     1       0.2563599891E-02      10   10    1         0.3452550379E-02      0.5104193625E-02
          0                10           1            10   10     1       0.1961900205E-02      10   10    1         0.2642624240E-02      0.3833729639E-02
                                                   Max.-Head-Change                         Max.-Flux-Residual
  Residual-Control   Outer-Iter.   Inner-Iter.     Column Row Layer    Maximum-Head-Change  Column Row Layer    Maximum-Flux-Residual          L2-NORM 
          0                11           1            10   10     1       0.1501302693E-02      10   10    1         0.2022335283E-02      0.2882660623E-02
          0                12           1            10   10     1       0.1148804330E-02      10   10    1         0.1547537222E-02      0.2169227407E-02
          0                13           1            10   10     1       0.8790603005E-03      10   10    1         0.1184179697E-02      0.1633447379E-02
          0                14           1            10   10     1       0.6726502064E-03      10   10    1         0.9061283721E-03      0.1230760395E-02
          0                15           1            10   10     1       0.5147058826E-03      10   10    1         0.6933622041E-03      0.9278994008E-03
          0                16           1            10   10     1       0.3938480454E-03      10   10    1         0.5305544414E-03      0.6999740394E-03
          0                17           1            10   10     1       0.3013687020E-03      10   10    1         0.4059751943E-03      0.5283401743E-03
          0                18           1            10   10     1       0.2306043848E-03      10   10    1         0.3106482765E-03      0.3990151681E-03
          0                19           1            10   10     1       0.1764562151E-03      10   10    1         0.2377050253E-03      0.3015142914E-03
          0                20           1            10   10     1       0.1350225653E-03      10   10    1         0.1818895570E-03      0.2279634342E-03
                                                   Max.-Head-Change                         Max.-Flux-Residual
  Residual-Control   Outer-Iter.   Inner-Iter.     Column Row Layer    Maximum-Head-Change  Column Row Layer    Maximum-Flux-Residual          L2-NORM 
          0                21           1            10   10     1       0.1033179419E-03      10   10    1         0.1391801057E-03      0.1724450741E-03
          0                22           1            10   10     1       0.7905787556E-04      10   10    1         0.1064992520E-03      0.1305168423E-03

    ------------------------------------------------
       NWT REQUIRED           22 OUTER ITERATIONS 
       AND A TOTAL OF         31 INNER ITERATIONS.
    ------------------------------------------------

 NO OUTPUT CONTROL FOR STRESS PERIOD   11   TIME STEP   11
 
 SOLVING FOR HEAD 
                                                   Max.-Head-Change                         Max.-Flux-Residual
  Residual-Control   Outer-Iter.   Inner-Iter.     Column Row Layer    Maximum-Head-Change  Column Row Layer    Maximum-Flux-Residual          L2-NORM 
          0                 1           2             5   10     1      -0.8081134227E-01       5   10    1        -0.1574291463E+01      0.4807944597E+01
          0                 2           2             3   15     2       0.1779756737E-01       3   15    2         0.1724179975E+00      0.5721423287E+00
          0                 3           2             3   15     1       0.1427789026E-01       3   15    2         0.5283458191E-01      0.1033567048E+00
          0                 4           2             3   15     1       0.1081179381E-01       3   15    2         0.1741742871E-01      0.3592027558E-01
          0                 5           2            10   10     1       0.8055120901E-02       3   15    1         0.1011148321E-01      0.1859047747E-01
          0                 6           2            10   10     1       0.6067359811E-02      10   10    1         0.7541480816E-02      0.1231589440E-01
          0                 7           2            10   10     1       0.4551771210E-02      10   10    1         0.5674628692E-02      0.8801337640E-02
          0                 8           2            10   10     1       0.3409442577E-02      10   10    1         0.4255446999E-02      0.6408473369E-02
          0                 9           2            10   10     1       0.2552245330E-02      10   10    1         0.3186991402E-02      0.4692552876E-02
          0                10           1            10   10     1       0.1910110681E-02      10   10    1         0.2385578668E-02      0.3443680985E-02
                                                   Max.-Head-Change                         Max.-Flux-Residual
  Residual-Control   Outer-Iter.   Inner-Iter.     Column Row Layer    Maximum-Head-Change  Column Row Layer    Maximum-Flux-Residual          L2-NORM 
          0                11           1            10   10     1       0.1429402351E-02      10   10    1         0.1785334779E-02      0.2529856139E-02
          0                12           1            10   10     1       0.1069632978E-02      10   10    1         0.1336016019E-02      0.1860399584E-02
          0                13           1            10   10     1       0.8004034773E-03      10   10    1         0.9997477298E-03      0.1369128510E-02
          0                14           1            10   10     1       0.5989364835E-03      10   10    1         0.7481075232E-03      0.1008289431E-02
          0                15           1            10   10     1       0.4481791451E-03      10   10    1         0.5598034914E-03      0.7430503488E-03
          0                16           1            10   10     1       0.3353684171E-03      10   10    1         0.4188961785E-03      0.5479439125E-03
          0                17           1            10   10     1       0.2509530854E-03      10   10    1         0.3134562174E-03      0.4043279771E-03
          0                18           1            10   10     1       0.1877858504E-03      10   10    1         0.2345563853E-03      0.2985420184E-03
          0                19           1            10   10     1       0.1405183926E-03      10   10    1         0.1755163530E-03      0.2205693778E-03
          0                20           1            10   10     1       0.1051485950E-03      10   10    1         0.1313372428E-03      0.1630606493E-03
          0                21           1            10   10     1       0.7868170655E-04      10   10    1         0.9827842700E-04      0.1206185965E-03

    ------------------------------------------------
       NWT REQUIRED           21 OUTER ITERATIONS 
       AND A TOTAL OF         30 INNER ITERATIONS.
    ------------------------------------------------

 NO OUTPUT CONTROL FOR STRESS PERIOD   11   TIME STEP   12
 
 SOLVING FOR HEAD 
                                                   Max.-Head-Change                         Max.-Flux-Residual
  Residual-Control   Outer-Iter.   Inner-Iter.     Column Row Layer    Maximum-Head-Change  Column Row Layer    Maximum-Flux-Residual          L2-NORM 
          0                 1           2             5   10     1      -0.8780957893E-01       5   10    1        -0.1556727563E+01      0.4762332363E+01
          0                 2           2             3   15     1       0.1988463903E-01       3   15    2         0.1707534203E+00      0.5618688751E+00
          0                 3           2             3   15     1       0.1600624621E-01       3   15    2         0.5242472680E-01      0.9990921998E-01
          0                 4           2             3   15     1       0.1183620609E-01       3   15    2         0.1744617121E-01      0.3502327338E-01
          0                 5           2             3   15     1       0.8489833823E-02       3   15    1         0.1003486947E-01      0.1807384943E-01
          0                 6           2             3   15     1       0.6017880210E-02       3   15    1         0.7175562626E-02      0.1171289007E-01
          0                 7           2            10   10     1       0.4356661198E-02       3   15    1         0.5080034442E-02      0.8151442588E-02
          0                 8           2            10   10     1       0.3187017359E-02      10   10    1         0.3692489882E-02      0.5779541050E-02
          0                 9           2            10   10     1       0.2329828239E-02      10   10    1         0.2700694099E-02      0.4121738361E-02
          0                10           1            10   10     1       0.1702738114E-02      10   10    1         0.1974173550E-02      0.2946635690E-02
                                                   Max.-Head-Change                         Max.-Flux-Residual
  Residual-Control   Outer-Iter.   Inner-Iter.     Column Row Layer    Maximum-Head-Change  Column Row Layer    Maximum-Flux-Residual          L2-NORM 
          0                11           1            10   10     1       0.1244302431E-02      10   10    1         0.1442771573E-02      0.2109457647E-02
          0                12           1            10   10     1       0.9092552876E-03      10   10    1         0.1054316586E-02      0.1511643055E-02
          0                13           1            10   10     1       0.6644135722E-03      10   10    1         0.7704227495E-03      0.1084173710E-02
          0                14           1            10   10     1       0.4854989437E-03      10   10    1         0.5629645428E-03      0.7782041775E-03
          0                15           1            10   10     1       0.3547618798E-03      10   10    1         0.4113680509E-03      0.5590124166E-03
          0                16           1            10   10     1       0.2592299386E-03      10   10    1         0.3005931725E-03      0.4018613500E-03
          0                17           1            10   10     1       0.1894232091E-03      10   10    1         0.2196480154E-03      0.2891014744E-03
          0                18           1            10   10     1       0.1384143619E-03      10   10    1         0.1605000990E-03      0.2081319115E-03
          0                19           1            10   10     1       0.1011414306E-03      10   10    1         0.1172798133E-03      0.1499482881E-03
          0                20           1            10   10     1       0.7390554430E-04      10   10    1         0.8569810200E-04      0.1081210963E-03

    ------------------------------------------------
       NWT REQUIRED           20 OUTER ITERATIONS 
       AND A TOTAL OF         29 INNER ITERATIONS.
    ------------------------------------------------

 NO OUTPUT CONTROL FOR STRESS PERIOD   11   TIME STEP   13
 
 SOLVING FOR HEAD 
                                                   Max.-Head-Change                         Max.-Flux-Residual
  Residual-Control   Outer-Iter.   Inner-Iter.     Column Row Layer    Maximum-Head-Change  Column Row Layer    Maximum-Flux-Residual          L2-NORM 
          0                 1           2             5   10     1      -0.9530574992E-01       5   10    1        -0.1537760676E+01      0.4683821420E+01
          0                 2           2             3   15     1       0.1483891196E-01       5   10    1         0.1537770526E+00      0.5235157197E+00
          0                 3           2             3   15     1       0.1143596582E-01       3   15    2         0.2843188966E-01      0.7643705728E-01
          0                 4           2             3   15     1       0.8143479011E-02       3   15    2         0.8844345024E-02      0.2469203810E-01
          0                 5           2            10   10     1       0.5851201750E-02      10   10    1         0.6252075283E-02      0.1249956783E-01
          0                 6           2            10   10     1       0.4183736252E-02      10   10    1         0.4498783866E-02      0.7976698039E-02
          0                 7           2            10   10     1       0.2982005440E-02      10   10    1         0.3213887870E-02      0.5424212376E-02
          0                 8           2            10   10     1       0.2123019300E-02      10   10    1         0.2290002753E-02      0.3743099608E-02
          0                 9           2            10   10     1       0.1510838784E-02      10   10    1         0.1630163187E-02      0.2594166767E-02
          0                10           1            10   10     1       0.1075019399E-02      10   10    1         0.1160050597E-02      0.1801278138E-02
                                                   Max.-Head-Change                         Max.-Flux-Residual
  Residual-Control   Outer-Iter.   Inner-Iter.     Column Row Layer    Maximum-Head-Change  Column Row Layer    Maximum-Flux-Residual          L2-NORM 
          0                11           1            10   10     1       0.7648749642E-03      10   10    1         0.8254075747E-03      0.1252228572E-02
          0                12           1            10   10     1       0.5441966238E-03      10   10    1         0.5872732003E-03      0.8713867636E-03
          0                13           1            10   10     1       0.3871845842E-03      10   10    1         0.4178348984E-03      0.6069205188E-03
          0                14           1            10   10     1       0.2754730492E-03      10   10    1         0.2972806313E-03      0.4230917201E-03
          0                15           1            10   10     1       0.1959926363E-03      10   10    1         0.2115083731E-03      0.2951974542E-03
          0                16           1            10   10     1       0.1394441321E-03      10   10    1         0.1504832522E-03      0.2061409982E-03
          0                17           1            10   10     1       0.9921119440E-04      10   10    1         0.1070652772E-03      0.1440748423E-03

    ------------------------------------------------
       NWT REQUIRED           17 OUTER ITERATIONS 
       AND A TOTAL OF         26 INNER ITERATIONS.
    ------------------------------------------------

 NO OUTPUT CONTROL FOR STRESS PERIOD   11   TIME STEP   14
 
 SOLVING FOR HEAD 
                                                   Max.-Head-Change                         Max.-Flux-Residual
  Residual-Control   Outer-Iter.   Inner-Iter.     Column Row Layer    Maximum-Head-Change  Column Row Layer    Maximum-Flux-Residual          L2-NORM 
          0                 1           2             5   10     1      -0.1033156257E+00       5   10    1        -0.1517305120E+01      0.4634911243E+01
          0                 2           2             3   15     1       0.1691354402E-01       5   10    1         0.1517316226E+00      0.5149820576E+00
          0                 3           2             3   15     1       0.1270940899E-01       3   15    2         0.2827552391E-01      0.7409421739E-01
          0                 4           2            10   10     1       0.8847105208E-02       3   15    2         0.8910609892E-02      0.2430656010E-01
          0                 5           2            10   10     1       0.6217493744E-02      10   10    1         0.6180189397E-02      0.1232180797E-01
          0                 6           2            10   10     1       0.4329066588E-02      10   10    1         0.4331895589E-02      0.7688377693E-02
          0                 7           2            10   10     1       0.3003969653E-02      10   10    1         0.3013298448E-02      0.5083660183E-02
          0                 8           2            10   10     1       0.2081857692E-02      10   10    1         0.2090212967E-02      0.3409929578E-02
          0                 9           2            10   10     1       0.1442129687E-02      10   10    1         0.1448403137E-02      0.2297595023E-02
          0                10           1            10   10     1       0.9988093180E-03      10   10    1         0.1003279122E-02      0.1551290137E-02
                                                   Max.-Head-Change                         Max.-Flux-Residual
  Residual-Control   Outer-Iter.   Inner-Iter.     Column Row Layer    Maximum-Head-Change  Column Row Layer    Maximum-Flux-Residual          L2-NORM 
          0                11           1            10   10     1       0.6917242846E-03      10   10    1         0.6948519529E-03      0.1048804492E-02
          0                12           1            10   10     1       0.4790414967E-03      10   10    1         0.4812157708E-03      0.7098579420E-03
          0                13           1            10   10     1       0.3317488453E-03      10   10    1         0.3332567149E-03      0.4809362951E-03
          0                14           1            10   10     1       0.2297440571E-03      10   10    1         0.2307888415E-03      0.3261587805E-03
          0                15           1            10   10     1       0.1591030950E-03      10   10    1         0.1598267742E-03      0.2214062838E-03
          0                16           1            10   10     1       0.1101825392E-03      10   10    1         0.1106837403E-03      0.1504414941E-03
          0                17           1            10   10     1       0.7630392012E-04      10   10    1         0.7665102345E-04      0.1023222297E-03

    ------------------------------------------------
       NWT REQUIRED           17 OUTER ITERATIONS 
       AND A TOTAL OF         26 INNER ITERATIONS.
    ------------------------------------------------

 OUTPUT CONTROL FOR STRESS PERIOD   11   TIME STEP   15
    PRINT BUDGET
    PRINT HEAD FOR ALL LAYERS
    SAVE HEAD FOR ALL LAYERS
    SAVE BUDGET

            WELLS   PERIOD   11   STEP  15
 WELL      1   LAYER   1   ROW     6   COL     4   RATE    -3.00000    
 WELL      2   LAYER   1   ROW     6   COL     5   RATE    -3.00000    
 WELL      3   LAYER   1   ROW     7   COL     4   RATE    -3.00000    
 WELL      4   LAYER   1   ROW     7   COL     5   RATE    -3.00000    
 WELL      5   LAYER   1   ROW     8   COL     4   RATE    -3.00000    
 WELL      6   LAYER   1   ROW     8   COL     5   RATE    -3.00000    
 WELL      7   LAYER   1   ROW     9   COL     4   RATE    -3.00000    
 WELL      8   LAYER   1   ROW     9   COL     5   RATE    -3.00000    
 WELL      9   LAYER   1   ROW    10   COL     4   RATE    -3.00000    
 WELL     10   LAYER   1   ROW    10   COL     5   RATE    -3.00000    

  HEAD DEP BOUNDS   PERIOD   11   STEP    15
 BOUNDARY      1   LAYER   1   ROW    13   COL     1   RATE   -0.282219    
 BOUNDARY      2   LAYER   1   ROW    14   COL     9   RATE    0.206938    



 STREAM LISTING     PERIOD     11   STEP       15

 LAYER ROW COL. STREAM  RCH.  FLOW INTO     FLOW TO   FLOW OUT OF   OVRLND.     DIRECT     STREAM       STREAM     STREAM     STREAM   STREAMBED  STREAMBED
                SEG.NO.  NO.  STRM. RCH.    AQUIFER    STRM. RCH.    RUNOFF     PRECIP       ET          HEAD       DEPTH      WIDTH   CONDCTNC.   GRADIENT

   1    1    1     1     1    2.5000E+01  1.1861E+00   2.3814E+01  0.000E+00  0.000E+00  0.000E+00  1.09422E+03  1.171E+00  1.294E+01  5.825E-01  6.788E-01
   1    2    2     1     2    2.3814E+01  2.6637E+00   2.1150E+01  0.000E+00  0.000E+00  0.000E+00  1.08920E+03  1.141E+00  1.255E+01  8.782E-01  1.011E+00
   1    3    3     1     3    2.1150E+01  2.9254E+00   1.8225E+01  0.000E+00  0.000E+00  0.000E+00  1.08351E+03  1.095E+00  1.191E+01  7.144E-01  1.365E+00
   1    3    4     1     4    1.8225E+01  2.4859E+00   1.5739E+01  0.000E+00  0.000E+00  0.000E+00  1.07846E+03  1.049E+00  1.106E+01  6.139E-01  1.350E+00
   1    4    5     2     1    5.7389E+00  2.6723E+00   3.0667E+00  0.000E+00  0.000E+00  0.000E+00  1.07236E+03  4.260E-01  1.200E+01  7.800E-01  1.142E+00
   1    5    6     2     2    3.0667E+00  1.9632E+00   1.1035E+00  0.000E+00  0.000E+00  0.000E+00  1.06678E+03  2.720E-01  1.200E+01  6.000E-01  1.091E+00
   1    6    6     2     3    1.1035E+00  1.1035E+00   0.0000E+00  0.000E+00  0.000E+00  0.000E+00  1.06183E+03  4.178E-02  1.200E+01  6.000E-01  1.014E+00
   1    7    6     2     4    0.0000E+00  0.0000E+00   0.0000E+00  0.000E+00  0.000E+00  0.000E+00  1.05708E+03  0.000E+00  1.200E+01  6.000E-01  1.000E+00
   1    8    6     2     5    0.0000E+00  0.0000E+00   0.0000E+00  0.000E+00  0.000E+00  0.000E+00  1.05236E+03  0.000E+00  1.200E+01  6.000E-01  1.000E+00
   1    3    5     3     1    1.0000E+01  1.8473E+00   8.1527E+00  0.000E+00  0.000E+00  0.000E+00  1.07555E+03  1.909E+00  9.636E+00  7.227E-01  1.278E+00
   1    3    6     3     2    8.1527E+00  1.5875E+00   6.5652E+00  0.000E+00  0.000E+00  0.000E+00  1.07264E+03  1.727E+00  8.909E+00  6.682E-01  1.188E+00
   1    3    7     3     3    6.5652E+00  1.1164E+00   5.4488E+00  0.000E+00  0.000E+00  0.000E+00  1.06987E+03  1.555E+00  8.218E+00  5.547E-01  1.006E+00
   1    4    8     3     4    5.4488E+00  1.5992E+00   3.8496E+00  0.000E+00  0.000E+00  0.000E+00  1.06682E+03  1.364E+00  7.455E+00  6.709E-01  1.192E+00
   1    5    8     3     5    3.8496E+00  1.4894E+00   2.3602E+00  0.000E+00  0.000E+00  0.000E+00  1.06362E+03  1.164E+00  6.655E+00  4.991E-01  1.492E+00
   1    6    8     3     6    2.3602E+00  5.5980E-01   1.8004E+00  0.000E+00  0.000E+00  0.000E+00  1.06158E+03  1.036E+00  6.145E+00  1.844E-01  1.518E+00
   1    5   10     4     1    1.0000E+01  9.0525E-01   9.0947E+00  0.000E+00  0.000E+00  0.000E+00  1.07835E+03  6.210E-01  1.000E+01  2.500E-01  1.207E+00
   1    5    9     4     2    9.0947E+00  1.7835E+00   7.3113E+00  0.000E+00  0.000E+00  0.000E+00  1.07148E+03  5.670E-01  1.000E+01  5.000E-01  1.189E+00
   1    6    8     4     3    7.3113E+00  1.2257E+00   6.0855E+00  0.000E+00  0.000E+00  0.000E+00  1.06368E+03  5.021E-01  1.000E+01  3.500E-01  1.167E+00
   1    6    8     5     1    7.8860E+00  2.6767E-01   7.6183E+00  0.000E+00  0.000E+00  0.000E+00  1.05861E+03  6.144E-01  1.298E+01  5.194E-01  1.718E-01
   1    7    7     5     2    7.6183E+00  1.2270E+00   6.3913E+00  0.000E+00  0.000E+00  0.000E+00  1.05409E+03  5.929E-01  1.222E+01  6.109E-01  6.695E-01
   1    8    7     5     3    6.3913E+00  8.9978E-01   5.4915E+00  0.000E+00  0.000E+00  0.000E+00  1.04981E+03  5.597E-01  1.107E+01  3.874E-01  7.742E-01
   1    8    6     5     4    5.4915E+00  8.0886E-01   4.6826E+00  0.000E+00  0.000E+00  0.000E+00  1.04678E+03  5.301E-01  1.008E+01  2.521E-01  1.069E+00
   1    9    6     6     1    4.6826E+00  1.7868E+00   2.8958E+00  0.000E+00  0.000E+00  0.000E+00  1.04312E+03  3.936E-01  1.200E+01  6.000E-01  9.927E-01
   1   10    7     6     2    2.8958E+00  1.1377E+00   1.7581E+00  0.000E+00  0.000E+00  0.000E+00  1.03848E+03  2.938E-01  1.200E+01  6.000E-01  6.321E-01
   1   11    7     6     3    1.7581E+00  7.9861E-01   9.5945E-01  0.000E+00  0.000E+00  0.000E+00  1.03385E+03  2.127E-01  1.200E+01  6.000E-01  4.437E-01
   1   12    7     6     4    9.5945E-01  3.9102E-01   5.6844E-01  0.000E+00  0.000E+00  0.000E+00  1.02924E+03  1.506E-01  1.200E+01  6.000E-01  2.172E-01
   1   13    7     6     5    5.6844E-01 -7.9624E-01   1.3647E+00  0.000E+00  0.000E+00  0.000E+00  1.02608E+03  1.734E-01  1.200E+01  2.400E-01 -1.106E+00
   1   14    9     7     1    1.5000E+02  1.7506E+00   1.4825E+02  0.000E+00  0.000E+00  0.000E+00  1.03987E+03  2.287E+00  5.529E+01  5.592E+00  1.043E-01
   1   13    8     7     2    1.4825E+02  1.7359E+00   1.4651E+02  0.000E+00  0.000E+00  0.000E+00  1.03478E+03  2.277E+00  5.525E+01  6.147E+00  9.414E-02
   1   13    7     7     3    1.4651E+02  1.6058E+00   1.4491E+02  0.000E+00  0.000E+00  0.000E+00  1.02969E+03  2.268E+00  5.521E+01  5.584E+00  9.586E-02
   1   13    6     8     1    1.4627E+02  4.2290E-01   1.4585E+02  0.000E+00  0.000E+00  0.000E+00  1.02466E+03  2.789E+00  4.044E+01  4.121E+00  3.421E-02
   1   13    5     8     2    1.4585E+02 -2.1805E-01   1.4607E+02  0.000E+00  0.000E+00  0.000E+00  1.01841E+03  2.788E+00  4.043E+01  4.120E+00 -1.764E-02
   1   13    4     8     3    1.4607E+02 -1.0392E+00   1.4711E+02  0.000E+00  0.000E+00  0.000E+00  1.01217E+03  2.793E+00  4.049E+01  4.126E+00 -8.395E-02
   1   13    3     8     4    1.4711E+02 -1.7123E+00   1.4882E+02  0.000E+00  0.000E+00  0.000E+00  1.00593E+03  2.802E+00  4.064E+01  4.141E+00 -1.378E-01
   1   13    2     8     5    1.4882E+02 -1.8813E+00   1.5070E+02  0.000E+00  0.000E+00  0.000E+00  9.99690E+02  2.815E+00  4.082E+01  4.160E+00 -1.508E-01
   1   13    1     8     6    1.5070E+02 -1.8145E+00   1.5251E+02  0.000E+00  0.000E+00  0.000E+00  9.94703E+02  2.828E+00  4.101E+01  2.507E+00 -2.412E-01



 UBDSV3 SAVING "           GW ET" ON UNIT  61 AT TIME STEP 15, STRESS PERIOD 11
 UBDSV3 SAVING "    UZF RECHARGE" ON UNIT  61 AT TIME STEP 15, STRESS PERIOD 11
 UBDSV3 SAVING " SURFACE LEAKAGE" ON UNIT  61 AT TIME STEP 15, STRESS PERIOD 11
 UBDSV3 SAVING "       HORT+DUNN" ON UNIT  61 AT TIME STEP 15, STRESS PERIOD 11
 UBDSV3 SAVING "  STORAGE CHANGE" ON UNIT  61 AT TIME STEP 15, STRESS PERIOD 11


UNSATURATED ZONE PACKAGE VOLUMETRIC BUDGET FOR  TIME STEP    15 STRESS PERIOD   11
  ------------------------------------------------------------------------------



     CUMULATIVE VOLUMES      L**3       RATES FOR THIS TIME STEP      L**3/T
     ------------------                 ------------------------

           IN:                                      IN:
           ---                                      ---
        INFILTRATION =  1514516276.4553          INFILTRATION =           8.4750

          OUT:                                     OUT:
          ----                                     ----
              UZF ET =  2018659962.8853                UZF ET =          37.2955
        UZF RECHARGE =   374002493.6701          UZF RECHARGE =           9.8738

            IN - OUT =  -878146180.1000              IN - OUT =         -38.6943

          STORAGE:                                 STORAGE:
          --------                                 --------
      STORAGE CHANGE =  -877876598.8082        STORAGE CHANGE =         -38.6912

 PERCENT DISCREPANCY IS DIFFERENCE BETWEEN IN-OUT MINUS CHANGE IN STORAGE
 DIVIDED BY THE AVERAGE OF IN AND OUT TIMES 100

 PERCENT DISCREPANCY =          -0.00     PERCENT DISCREPANCY =          -0.01






1
              HEAD IN LAYER 1 AT END OF TIME STEP 15 IN STRESS PERIOD 11
  ---------------------------------------------------------------------------

           1       2       3       4       5       6       7       8       9      10
 ...................................................................................
   1  1092.18 1087.68 6999.00 6999.00 6999.00 6999.00 6999.00 6999.00 6999.00 6999.00
   2  1087.59 1086.17 1078.39 6999.00 6999.00 1071.61 1071.14 1069.13 6999.00 6999.00
   3  6999.00 1074.81 1078.88 1074.28 1072.99 1070.26 1067.86 1065.94 6999.00 6999.00
   4  1067.50 1066.08 1065.06 1063.78 1066.33 1061.55 1059.95 1064.43 1062.28 6999.00
   5  1063.97 1059.52 1055.87 1053.71 1055.98 1060.59 1057.32 1060.63 1064.43 1065.63
   6  1060.20 1054.31 1049.85 1040.25 1043.34 1053.49 1054.13 1058.10 1057.86 1063.24
   7  1057.12 1049.25 1044.45 1032.01 1035.61 1046.18 1052.08 1052.72 1053.51 6999.00
   8  6999.00 1043.28 1039.75 1028.05 1031.46 1043.57 1047.49 1047.55 1049.90 6999.00
   9  6999.00 1037.34 1034.91 1024.23 1027.99 1040.14 1040.28 1041.70 1045.58 6999.00
  10  6999.00 1031.46 1030.32 1021.94 1024.37 1032.56 1036.58 1037.38 1041.87 1047.11
  11  6999.00 1023.92 1024.48 1024.31 1025.93 1029.15 1032.52 1033.94 1037.94 6999.00
  12  1006.75 1013.43 1015.93 1019.55 1022.40 1025.57 1028.59 1030.47 1035.30 6999.00
  13   995.43 1000.14 1006.34 1012.42 1018.47 1024.56 1029.40 1034.49 1035.85 6999.00
  14  6999.00 1012.25 1016.95 1021.55 1025.44 1028.49 1031.02 1034.62 1039.55 6999.00
  15  6999.00 6999.00 1026.94 1029.43 1032.53 1034.38 6999.00 6999.00 6999.00 6999.00
1
              HEAD IN LAYER 2 AT END OF TIME STEP 15 IN STRESS PERIOD 11
  ---------------------------------------------------------------------------

           1       2       3       4       5       6       7       8       9      10
 ...................................................................................
   1  1091.00 1087.12 6999.00 6999.00 6999.00 6999.00 6999.00 6999.00 6999.00 6999.00
   2  1087.36 1080.80 1075.50 6999.00 6999.00 1070.79 1070.37 1068.85 6999.00 6999.00
   3  6999.00 1072.77 1068.26 1064.52 1063.76 1064.37 1064.99 1065.50 6999.00 6999.00
   4  1066.58 1065.50 1062.52 1059.14 1057.72 1057.23 1058.51 1061.70 1061.88 6999.00
   5  1063.10 1059.01 1055.83 1053.82 1053.54 1053.84 1054.19 1056.04 1059.99 1063.88
   6  1059.35 1053.95 1050.30 1048.76 1049.00 1050.21 1051.48 1053.35 1056.99 1062.92
   7  1056.31 1048.95 1045.24 1044.00 1044.62 1046.19 1048.08 1050.55 1053.39 6999.00
   8  6999.00 1043.03 1040.45 1039.60 1040.39 1042.03 1043.84 1047.34 1049.61 6999.00
   9  6999.00 1036.98 1035.52 1035.25 1036.20 1037.86 1039.29 1041.60 1045.27 6999.00
  10  6999.00 1031.09 1030.80 1031.36 1032.54 1034.16 1035.41 1037.31 1041.52 1047.11
  11  6999.00 1024.08 1025.25 1027.79 1029.45 1031.18 1032.63 1034.16 1037.65 6999.00
  12  1007.03 1014.78 1019.90 1023.80 1026.50 1028.77 1030.45 1031.80 1035.24 6999.00
  13  1000.28 1007.77 1015.79 1021.11 1024.66 1027.57 1030.07 1032.67 1035.43 6999.00
  14  6999.00 1012.54 1017.44 1021.98 1025.67 1028.60 1030.92 1034.23 1036.91 6999.00
  15  6999.00 6999.00 1026.94 1029.42 1031.95 1033.79 6999.00 6999.00 6999.00 6999.00

 HEAD WILL BE SAVED ON UNIT   58 AT END OF TIME STEP   15, STRESS PERIOD   11
1
  VOLUMETRIC BUDGET FOR ENTIRE MODEL AT END OF TIME STEP   15, STRESS PERIOD  11
  ------------------------------------------------------------------------------

     CUMULATIVE VOLUMES      L**3       RATES FOR THIS TIME STEP      L**3/T
     ------------------                 ------------------------

           IN:                                      IN:
           ---                                      ---
             STORAGE     =   118029560.0000               STORAGE     =          15.2737
       CONSTANT HEAD     =           0.0000         CONSTANT HEAD     =           0.0000
               WELLS     =           0.0000                 WELLS     =           0.0000
     HEAD DEP BOUNDS     =     5975982.0000       HEAD DEP BOUNDS     =           0.2069
      STREAM LEAKAGE     =  1143205376.0000        STREAM LEAKAGE     =          39.9468
        UZF RECHARGE     =   374002432.0000          UZF RECHARGE     =           9.8738
               GW ET     =           0.0000                 GW ET     =           0.0000
     SURFACE LEAKAGE     =           0.0000       SURFACE LEAKAGE     =           0.0000

                TOTAL IN =  1641213312.0000                  TOTAL IN =          65.3012

          OUT:                                     OUT:
          ----                                     ----
             STORAGE     =   446700416.0000               STORAGE     =           6.7775
       CONSTANT HEAD     =           0.0000         CONSTANT HEAD     =           0.0000
               WELLS     =   394199936.0000                 WELLS     =          30.0000
     HEAD DEP BOUNDS     =     8179855.0000       HEAD DEP BOUNDS     =           0.2822
      STREAM LEAKAGE     =   230968288.0000        STREAM LEAKAGE     =           7.4616
        UZF RECHARGE     =           0.0000          UZF RECHARGE     =           0.0000
               GW ET     =   561153856.0000                 GW ET     =          20.7798
     SURFACE LEAKAGE     =           0.0000       SURFACE LEAKAGE     =           0.0000

               TOTAL OUT =  1641202432.0000                 TOTAL OUT =          65.3010

                IN - OUT =       10880.0000                  IN - OUT =       1.8311E-04

     PERCENT DISCREPANCY =           0.00         PERCENT DISCREPANCY =           0.00






         TIME SUMMARY AT END OF TIME STEP   15 IN STRESS PERIOD   11
                    SECONDS     MINUTES      HOURS       DAYS        YEARS
                    -----------------------------------------------------------
   TIME STEP LENGTH 3.14103E+05  5235.0      87.251      3.6354     9.95332E-03
 STRESS PERIOD TIME 2.62800E+06  43800.      730.00      30.417     8.32763E-02
         TOTAL TIME 2.89080E+07 4.81800E+05  8030.0      334.58     0.91604    
1
1
                            STRESS PERIOD NO.   12, LENGTH =   2628000.    
                            -----------------------------------------------

                              NUMBER OF TIME STEPS =    15

                               MULTIPLIER FOR DELT =     1.100

                            INITIAL TIME STEP SIZE =   82713.07    

      0 WELLS

 REUSING NON-PARAMETER GHB CELLS FROM LAST STRESS PERIOD

      2 GHB CELLS

 REUSING STREAM SEGMENT DATA FROM LAST STRESS PERIOD



            AREAL INFILTRATION RATE
 READING ON UNIT   19 WITH FORMAT: (10F4.0)            

            1           2           3           4           5           6           7           8           9          10
 ........................................................................................................................
   1   1.0000E-09  2.0000E-09   0.000       0.000       0.000       0.000       0.000       0.000       0.000       0.000    
   2   2.0000E-09  1.0000E-09  2.0000E-09   0.000       0.000      8.0000E-09  8.0000E-09  5.0000E-09   0.000       0.000    
   3    0.000      5.0000E-09  1.0000E-09  1.0000E-09  8.0000E-09  8.0000E-09  5.0000E-09  5.0000E-09   0.000       0.000    
   4   8.0000E-09  5.0000E-09  1.0000E-09  1.0000E-09  1.0000E-09  1.0000E-09  1.0000E-09  1.0000E-09  2.0000E-09   0.000    
   5   8.0000E-09  5.0000E-09  1.0000E-09  1.0000E-09  1.0000E-09  1.0000E-09  1.0000E-09  1.0000E-09  1.0000E-09  1.0000E-09
   6   8.0000E-09  5.0000E-09  5.0000E-09  2.0000E-09  2.0000E-09  1.0000E-09  1.0000E-09  1.0000E-09  1.0000E-09  5.0000E-09
   7   8.0000E-09  5.0000E-09  5.0000E-09  2.0000E-09  2.0000E-09  1.0000E-09  1.0000E-09  2.0000E-09  2.0000E-09   0.000    
   8    0.000      5.0000E-09  5.0000E-09  2.0000E-09  2.0000E-09  1.0000E-09  1.0000E-09  2.0000E-09  5.0000E-09   0.000    
   9    0.000      5.0000E-09  5.0000E-09  2.0000E-09  2.0000E-09  1.0000E-09  1.0000E-09  2.0000E-09  5.0000E-09   0.000    
  10    0.000      5.0000E-09  5.0000E-09  2.0000E-09  2.0000E-09  1.0000E-09  1.0000E-09  2.0000E-09  5.0000E-09  8.0000E-09
  11    0.000      1.0000E-09  1.0000E-09  1.0000E-09  1.0000E-09  1.0000E-09  1.0000E-09  2.0000E-09  5.0000E-09   0.000    
  12   1.0000E-09  1.0000E-09  1.0000E-09  1.0000E-09  1.0000E-09  1.0000E-09  1.0000E-09  1.0000E-09  2.0000E-09   0.000    
  13   1.0000E-09  1.0000E-09  2.0000E-09  2.0000E-09  2.0000E-09  2.0000E-09  2.0000E-09  1.0000E-09  1.0000E-09   0.000    
  14    0.000      2.0000E-09  5.0000E-09  5.0000E-09  5.0000E-09  5.0000E-09  5.0000E-09  2.0000E-09  1.0000E-09   0.000    
  15    0.000       0.000      8.0000E-09  8.0000E-09  8.0000E-09  8.0000E-09   0.000       0.000       0.000       0.000    

USING ET RATE FROM PREVIOUS STRESS PERIOD. CURRENT PERIOD IS:      12

 USING ET EXTINCTION DEPTH FROM PREVIOUS STRESS PERIOD. CURRENT PERIOD IS:      12

 USING EXTINCTION WATER CONTENT FROM PREVIOUS STRESS PERIOD. CURRENT PERIOD IS:      12
 
 SOLVING FOR HEAD 
                                                   Max.-Head-Change                         Max.-Flux-Residual
  Residual-Control   Outer-Iter.   Inner-Iter.     Column Row Layer    Maximum-Head-Change  Column Row Layer    Maximum-Flux-Residual          L2-NORM 
          0                 1           2             4    7     1       0.3058425922E-01       4    7    1         0.1683435701E+01      0.5125002527E+01
          0                 2           2             3   15     2       0.3746231474E-02       4    7    1        -0.1683441197E+00      0.5579462724E+00
          0                 3           2             3   15     1       0.1855714813E-02       3   15    2         0.2851672986E-01      0.7141283897E-01
          0                 4           2             3   15     1       0.1671903676E-02       3   15    2         0.8009137438E-02      0.1923738088E-01
          0                 5           2             3   15     1       0.1479601726E-02       3   15    1         0.4546720276E-02      0.8895418944E-02
          0                 6           2             3   15     1       0.1302339505E-02       3   15    1         0.4017877662E-02      0.6772859406E-02
          0                 7           1             3   15     1       0.1144403248E-02       3   15    1         0.3534932728E-02      0.5864507314E-02
          0                 8           1             3   15     1       0.1005101549E-02       3   15    1         0.3105816606E-02      0.5162407764E-02
          0                 9           1             3   15     1       0.8826152918E-03       3   15    1         0.2727646218E-02      0.4554995736E-02
          0                10           1            10   10     1       0.7795967603E-03       3   15    1         0.2395211049E-02      0.4021201883E-02
                                                   Max.-Head-Change                         Max.-Flux-Residual
  Residual-Control   Outer-Iter.   Inner-Iter.     Column Row Layer    Maximum-Head-Change  Column Row Layer    Maximum-Flux-Residual          L2-NORM 
          0                11           1            10   10     1       0.6957653785E-03      10   10    1         0.2119057407E-02      0.3550760913E-02
          0                12           1            10   10     1       0.6209459447E-03      10   10    1         0.1891189435E-02      0.3135836334E-02
          0                13           1            10   10     1       0.5541715477E-03      10   10    1         0.1687819005E-02      0.2769767801E-02
          0                14           1            10   10     1       0.4945776497E-03      10   10    1         0.1506316604E-02      0.2446747943E-02
          0                15           1            10   10     1       0.4413922441E-03      10   10    1         0.1344331939E-02      0.2161675950E-02
          0                16           1            10   10     1       0.3939262256E-03      10   10    1         0.1199766494E-02      0.1910062696E-02
          0                17           1            10   10     1       0.3515645588E-03      10   10    1         0.1070747155E-02      0.1687954473E-02
          0                18           1            10   10     1       0.3137583407E-03      10   10    1         0.9556021663E-03      0.1491866982E-02
          0                19           1            10   10     1       0.2800176924E-03      10   10    1         0.8528395282E-03      0.1318730811E-02
          0                20           1            10   10     1       0.2499054140E-03      10   10    1         0.7611276811E-03      0.1165840738E-02
                                                   Max.-Head-Change                         Max.-Flux-Residual
  Residual-Control   Outer-Iter.   Inner-Iter.     Column Row Layer    Maximum-Head-Change  Column Row Layer    Maximum-Flux-Residual          L2-NORM 
          0                21           1            10   10     1       0.2230313221E-03      10   10    1         0.6792782557E-03      0.1030812096E-02
          0                22           1            10   10     1       0.1990471907E-03      10   10    1         0.6062306763E-03      0.9115437333E-03
          0                23           1            10   10     1       0.1776422427E-03      10   10    1         0.5410384185E-03      0.8061820280E-03
          0                24           1            10   10     1       0.1585391193E-03      10   10    1         0.4828567439E-03      0.7130938242E-03
          0                25           1            10   10     1       0.1414902901E-03      10   10    1         0.4309317550E-03      0.6308388446E-03
          0                26           1            10   10     1       0.1262748415E-03      10   10    1         0.3845906264E-03      0.5581465828E-03
          0                27           1            10   10     1       0.1126956179E-03      10   10    1         0.3432328861E-03      0.4938981937E-03
          0                28           1            10   10     1       0.1005766636E-03      10   10    1         0.3063226350E-03      0.4371031696E-03
          0                29           1            10   10     1       0.8976094597E-04      10   10    1         0.2733816033E-03      0.3868910173E-03

    ------------------------------------------------
       NWT REQUIRED           29 OUTER ITERATIONS 
       AND A TOTAL OF         35 INNER ITERATIONS.
    ------------------------------------------------

 NO OUTPUT CONTROL FOR STRESS PERIOD   12   TIME STEP    1
 
 SOLVING FOR HEAD 
                                                   Max.-Head-Change                         Max.-Flux-Residual
  Residual-Control   Outer-Iter.   Inner-Iter.     Column Row Layer    Maximum-Head-Change  Column Row Layer    Maximum-Flux-Residual          L2-NORM 
          0                 1           2             4    7     1       0.3359242271E-01       4    7    1         0.1680839122E+01      0.5111950814E+01
          0                 2           2             3   15     2       0.4106021412E-02       4    7    1        -0.1680845485E+00      0.5561921974E+00
          0                 3           2             3   15     1       0.2208871576E-02       3   15    2         0.2841386476E-01      0.7105941005E-01
          0                 4           2             3   15     1       0.1966758740E-02       3   15    2         0.8012223992E-02      0.1944871210E-01
          0                 5           2             3   15     1       0.1720032288E-02       3   15    1         0.4856601064E-02      0.9348329816E-02
          0                 6           2             3   15     1       0.1496016800E-02       3   15    1         0.4241049165E-02      0.7163269582E-02
          0                 7           2             3   15     1       0.1298957623E-02       3   15    1         0.3687002158E-02      0.6143749999E-02
          0                 8           1             3   15     1       0.1127254629E-02       3   15    1         0.3200881459E-02      0.5347589515E-02
          0                 9           1            10   10     1       0.9875441985E-03       3   15    1         0.2777647748E-02      0.4665072580E-02
          0                10           1            10   10     1       0.8720677080E-03      10   10    1         0.2437671110E-02      0.4071888856E-02
                                                   Max.-Head-Change                         Max.-Flux-Residual
  Residual-Control   Outer-Iter.   Inner-Iter.     Column Row Layer    Maximum-Head-Change  Column Row Layer    Maximum-Flux-Residual          L2-NORM 
          0                11           1            10   10     1       0.7700832436E-03      10   10    1         0.2152618750E-02      0.3554961294E-02
          0                12           1            10   10     1       0.6800224245E-03      10   10    1         0.1900877296E-02      0.3104260388E-02
          0                13           1            10   10     1       0.6004933580E-03      10   10    1         0.1678570144E-02      0.2711254195E-02
          0                14           1            10   10     1       0.5302650485E-03      10   10    1         0.1482260129E-02      0.2368316281E-02
          0                15           1            10   10     1       0.4682499520E-03      10   10    1         0.1308908271E-02      0.2068873333E-02
          0                16           1            10   10     1       0.4134875764E-03      10   10    1         0.1155829974E-02      0.1807859937E-02
          0                17           1            10   10     1       0.3651297204E-03      10   10    1         0.1020654325E-02      0.1579963582E-02
          0                18           1            10   10     1       0.3224273718E-03      10   10    1         0.9012876152E-03      0.1380729761E-02
          0                19           1            10   10     1       0.2847191132E-03      10   10    1         0.7958809798E-03      0.1206982818E-02
          0                20           1            10   10     1       0.2514208801E-03      10   10    1         0.7028017729E-03      0.1055265407E-02
                                                   Max.-Head-Change                         Max.-Flux-Residual
  Residual-Control   Outer-Iter.   Inner-Iter.     Column Row Layer    Maximum-Head-Change  Column Row Layer    Maximum-Flux-Residual          L2-NORM 
          0                21           1            10   10     1       0.2220169145E-03      10   10    1         0.6206082879E-03      0.9227633082E-03
          0                22           1            10   10     1       0.1960517771E-03      10   10    1         0.5480274269E-03      0.8070255139E-03
          0                23           1            10   10     1       0.1731232929E-03      10   10    1         0.4839349824E-03      0.7059157274E-03
          0                24           1            10   10     1       0.1528763222E-03      10   10    1         0.4273382243E-03      0.6175714202E-03
          0                25           1            10   10     1       0.1349972586E-03      10   10    1         0.3773605226E-03      0.5403687603E-03
          0                26           1            10   10     1       0.1192091720E-03      10   10    1         0.3332277715E-03      0.4728922489E-03
          0                27           1            10   10     1       0.1052675205E-03      10   10    1         0.2942563970E-03      0.4139074422E-03
          0                28           1            10   10     1       0.9295636190E-04      10   10    1         0.2598427699E-03      0.3623374986E-03

    ------------------------------------------------
       NWT REQUIRED           28 OUTER ITERATIONS 
       AND A TOTAL OF         35 INNER ITERATIONS.
    ------------------------------------------------

 NO OUTPUT CONTROL FOR STRESS PERIOD   12   TIME STEP    2
 
 SOLVING FOR HEAD 
                                                   Max.-Head-Change                         Max.-Flux-Residual
  Residual-Control   Outer-Iter.   Inner-Iter.     Column Row Layer    Maximum-Head-Change  Column Row Layer    Maximum-Flux-Residual          L2-NORM 
          0                 1           2             4    7     1       0.3689386818E-01       4    7    1         0.1678329795E+01      0.5097355985E+01
          0                 2           2             3   15     2       0.4500333886E-02       4    7    1        -0.1678337190E+00      0.5532062987E+00
          0                 3           2             3   15     1       0.2568013159E-02       3   15    2         0.2831035922E-01      0.7000112325E-01
          0                 4           2             3   15     1       0.2258837625E-02       3   15    2         0.8014488378E-02      0.1941460526E-01
          0                 5           2             3   15     1       0.1950607793E-02       3   15    1         0.5064455493E-02      0.9628784158E-02
          0                 6           2             3   15     1       0.1674871529E-02       3   15    1         0.4366647044E-02      0.7384724889E-02
          0                 7           2             3   15     1       0.1435543816E-02       3   15    1         0.3747571958E-02      0.6263004734E-02
          0                 8           2            10   10     1       0.1232012422E-02       3   15    1         0.3211580824E-02      0.5384184710E-02
          0                 9           1            10   10     1       0.1075549583E-02      10   10    1         0.2761462467E-02      0.4638891140E-02
          0                10           1            10   10     1       0.9389104918E-03      10   10    1         0.2410730688E-02      0.3999144985E-02
                                                   Max.-Head-Change                         Max.-Flux-Residual
  Residual-Control   Outer-Iter.   Inner-Iter.     Column Row Layer    Maximum-Head-Change  Column Row Layer    Maximum-Flux-Residual          L2-NORM 
          0                11           1            10   10     1       0.8196175171E-03      10   10    1         0.2104459907E-02      0.3448610741E-02
          0                12           1            10   10     1       0.7154778336E-03      10   10    1         0.1837076087E-02      0.2974483824E-02
          0                13           1            10   10     1       0.6245690890E-03      10   10    1         0.1603658645E-02      0.2566020360E-02
          0                14           1            10   10     1       0.5452109754E-03      10   10    1         0.1399897336E-02      0.2214049424E-02
          0                15           1            10   10     1       0.4759360822E-03      10   10    1         0.1222025534E-02      0.1910701663E-02
          0                16           1            10   10     1       0.4154632893E-03      10   10    1         0.1066754106E-02      0.1649215221E-02
          0                17           1            10   10     1       0.3626742104E-03      10   10    1         0.9312115429E-03      0.1423771957E-02
          0                18           1            10   10     1       0.3165925510E-03      10   10    1         0.8128911094E-03      0.1229371472E-02
          0                19           1            10   10     1       0.2763660622E-03      10   10    1         0.7096045570E-03      0.1061713502E-02
          0                20           1            10   10     1       0.2412507821E-03      10   10    1         0.6194416712E-03      0.9170870722E-03
                                                   Max.-Head-Change                         Max.-Flux-Residual
  Residual-Control   Outer-Iter.   Inner-Iter.     Column Row Layer    Maximum-Head-Change  Column Row Layer    Maximum-Flux-Residual          L2-NORM 
          0                21           1            10   10     1       0.2105972762E-03      10   10    1         0.5407349493E-03      0.7923034198E-03
          0                22           1            10   10     1       0.1838386280E-03      10   10    1         0.4720287628E-03      0.6846320053E-03
          0                23           1            10   10     1       0.1604799540E-03      10   10    1         0.4120524358E-03      0.5917008269E-03
          0                24           1            10   10     1       0.1400892508E-03      10   10    1         0.3596967460E-03      0.5114774813E-03
          0                25           1            10   10     1       0.1222894056E-03      10   10    1         0.3139934093E-03      0.4422189321E-03
          0                26           1            10   10     1       0.1067512225E-03      10   10    1         0.2740971728E-03      0.3824066447E-03
          0                27           1            10   10     1       0.9318733245E-04      10   10    1         0.2392701819E-03      0.3307429266E-03

    ------------------------------------------------
       NWT REQUIRED           27 OUTER ITERATIONS 
       AND A TOTAL OF         35 INNER ITERATIONS.
    ------------------------------------------------

 NO OUTPUT CONTROL FOR STRESS PERIOD   12   TIME STEP    3
 
 SOLVING FOR HEAD 
                                                   Max.-Head-Change                         Max.-Flux-Residual
  Residual-Control   Outer-Iter.   Inner-Iter.     Column Row Layer    Maximum-Head-Change  Column Row Layer    Maximum-Flux-Residual          L2-NORM 
          0                 1           2             4    7     1       0.4051471603E-01       4    7    1         0.1675707153E+01      0.5083325586E+01
          0                 2           2             3   15     2       0.4931373899E-02       4    7    1        -0.1675715778E+00      0.5510360726E+00
          0                 3           2             3   15     1       0.2977368352E-02       3   15    2         0.2820160009E-01      0.6940912063E-01
          0                 4           2             3   15     1       0.2584606691E-02       3   15    2         0.8020230101E-02      0.1951499115E-01
          0                 5           2             3   15     1       0.2201555425E-02       3   15    1         0.5260870693E-02      0.9918185631E-02
          0                 6           2             3   15     1       0.1864211687E-02       3   15    1         0.4473996889E-02      0.7581139405E-02
          0                 7           2             3   15     1       0.1575596711E-02       3   15    1         0.3786523138E-02      0.6348629470E-02
          0                 8           2            10   10     1       0.1347082195E-02       3   15    1         0.3199780021E-02      0.5384729380E-02
          0                 9           1            10   10     1       0.1161418785E-02      10   10    1         0.2741381801E-02      0.4577319492E-02
          0                10           1            10   10     1       0.1001290934E-02      10   10    1         0.2363513061E-02      0.3893485059E-02
                                                   Max.-Head-Change                         Max.-Flux-Residual
  Residual-Control   Outer-Iter.   Inner-Iter.     Column Row Layer    Maximum-Head-Change  Column Row Layer    Maximum-Flux-Residual          L2-NORM 
          0                11           1            10   10     1       0.8632257691E-03      10   10    1         0.2037640119E-02      0.3312889773E-02
          0                12           1            10   10     1       0.7441940764E-03      10   10    1         0.1756673245E-02      0.2819557037E-02
          0                13           1            10   10     1       0.6415748039E-03      10   10    1         0.1514441892E-02      0.2400215256E-02
          0                14           1            10   10     1       0.5531057400E-03      10   10    1         0.1305610557E-02      0.2043677183E-02
          0                15           1            10   10     1       0.4768359183E-03      10   10    1         0.1125575179E-02      0.1740471436E-02
          0                16           1            10   10     1       0.4110832081E-03      10   10    1         0.9703654035E-03      0.1482566902E-02
          0                17           1            10   10     1       0.3543973835E-03      10   10    1         0.8365580517E-03      0.1263150034E-02
          0                18           1            10   10     1       0.3055281820E-03      10   10    1         0.7212018927E-03      0.1076438768E-02
          0                19           1            10   10     1       0.2633977406E-03      10   10    1         0.6217526297E-03      0.9175248695E-03
          0                20           1            10   10     1       0.2270768259E-03      10   10    1         0.5360168025E-03      0.7822414493E-03
                                                   Max.-Head-Change                         Max.-Flux-Residual
  Residual-Control   Outer-Iter.   Inner-Iter.     Column Row Layer    Maximum-Head-Change  Column Row Layer    Maximum-Flux-Residual          L2-NORM 
          0                21           1            10   10     1       0.1957643404E-03      10   10    1         0.4621034140E-03      0.6670502433E-03
          0                22           1            10   10     1       0.1687696532E-03      10   10    1         0.3983822230E-03      0.5689461273E-03
          0                23           1            10   10     1       0.1454973654E-03      10   10    1         0.3434477887E-03      0.4853764848E-03
          0                24           1            10   10     1       0.1254341820E-03      10   10    1         0.2960884719E-03      0.4141725981E-03
          0                25           1            10   10     1       0.1081375870E-03      10   10    1         0.2552597109E-03      0.3534914292E-03
          0                26           1            10   10     1       0.9322608540E-04      10   10    1         0.2200609825E-03      0.3017665774E-03

    ------------------------------------------------
       NWT REQUIRED           26 OUTER ITERATIONS 
       AND A TOTAL OF         34 INNER ITERATIONS.
    ------------------------------------------------

 NO OUTPUT CONTROL FOR STRESS PERIOD   12   TIME STEP    4
 
 SOLVING FOR HEAD 
                                                   Max.-Head-Change                         Max.-Flux-Residual
  Residual-Control   Outer-Iter.   Inner-Iter.     Column Row Layer    Maximum-Head-Change  Column Row Layer    Maximum-Flux-Residual          L2-NORM 
          0                 1           2             4    7     1       0.4448392161E-01       4    7    1         0.1672879833E+01      0.5066370399E+01
          0                 2           2             3   15     2       0.5401571646E-02       4    7    1        -0.1672889931E+00      0.5474728319E+00
          0                 3           2             3   15     1       0.3442639015E-02       3   15    2         0.2808252315E-01      0.6799861730E-01
          0                 4           2             3   15     1       0.2946195988E-02       3   15    2         0.8027628543E-02      0.1931793935E-01
          0                 5           2             3   15     1       0.2472681870E-02       3   15    1         0.5443586540E-02      0.1003650811E-01
          0                 6           2             3   15     1       0.2062536722E-02       3   15    1         0.4561049114E-02      0.7633207989E-02
          0                 7           2            10   10     1       0.1718807680E-02       3   15    1         0.3802466446E-02      0.6306377076E-02
          0                 8           2            10   10     1       0.1462281442E-02      10   10    1         0.3175575355E-02      0.5272942020E-02
          0                 9           1            10   10     1       0.1243812929E-02      10   10    1         0.2701497880E-02      0.4418677089E-02
          0                10           1            10   10     1       0.1057922571E-02      10   10    1         0.2297851291E-02      0.3705384249E-02
                                                   Max.-Head-Change                         Max.-Flux-Residual
  Residual-Control   Outer-Iter.   Inner-Iter.     Column Row Layer    Maximum-Head-Change  Column Row Layer    Maximum-Flux-Residual          L2-NORM 
          0                11           1            10   10     1       0.8997972640E-03      10   10    1         0.1954423075E-02      0.3108385993E-02
          0                12           1            10   10     1       0.7653020971E-03      10   10    1         0.1662297266E-02      0.2608315041E-02
          0                13           1            10   10     1       0.6509090806E-03      10   10    1         0.1413828456E-02      0.2189262723E-02
          0                14           1            10   10     1       0.5536145581E-03      10   10    1         0.1202497232E-02      0.1838000673E-02
          0                15           1            10   10     1       0.4708630307E-03      10   10    1         0.1022754134E-02      0.1543487352E-02
          0                16           1            10   10     1       0.4004807649E-03      10   10    1         0.8698779766E-03      0.1296492968E-02
          0                17           1            10   10     1       0.3406188851E-03      10   10    1         0.7398529459E-03      0.1089299857E-02
          0                18           1            10   10     1       0.2897048618E-03      10   10    1         0.6292634011E-03      0.9154515773E-03
          0                19           1            10   10     1       0.2464012148E-03      10   10    1         0.5352042305E-03      0.7695452062E-03
          0                20           1            10   10     1       0.2095703822E-03      10   10    1         0.4552045577E-03      0.6470591718E-03
                                                   Max.-Head-Change                         Max.-Flux-Residual
  Residual-Control   Outer-Iter.   Inner-Iter.     Column Row Layer    Maximum-Head-Change  Column Row Layer    Maximum-Flux-Residual          L2-NORM 
          0                21           1            10   10     1       0.1782448402E-03      10   10    1         0.3871628393E-03      0.5442076742E-03
          0                22           1            10   10     1       0.1516016858E-03      10   10    1         0.3292916596E-03      0.4578218009E-03
          0                23           1            10   10     1       0.1289410175E-03      10   10    1         0.2800707769E-03      0.3852472682E-03
          0                24           1            10   10     1       0.1096675540E-03      10   10    1         0.2382071875E-03      0.3242595773E-03
          0                25           1            10   10     1       0.9327499237E-04      10   10    1         0.2026011599E-03      0.2729964877E-03

    ------------------------------------------------
       NWT REQUIRED           25 OUTER ITERATIONS 
       AND A TOTAL OF         33 INNER ITERATIONS.
    ------------------------------------------------

 OUTPUT CONTROL FOR STRESS PERIOD   12   TIME STEP    5
    PRINT BUDGET
    SAVE BUDGET

  HEAD DEP BOUNDS   PERIOD   12   STEP     5
 BOUNDARY      1   LAYER   1   ROW    13   COL     1   RATE   -0.282184    
 BOUNDARY      2   LAYER   1   ROW    14   COL     9   RATE    0.206993    



 STREAM LISTING     PERIOD     12   STEP        5

 LAYER ROW COL. STREAM  RCH.  FLOW INTO     FLOW TO   FLOW OUT OF   OVRLND.     DIRECT     STREAM       STREAM     STREAM     STREAM   STREAMBED  STREAMBED
                SEG.NO.  NO.  STRM. RCH.    AQUIFER    STRM. RCH.    RUNOFF     PRECIP       ET          HEAD       DEPTH      WIDTH   CONDCTNC.   GRADIENT

   1    1    1     1     1    2.5000E+01  1.1872E+00   2.3813E+01  0.000E+00  0.000E+00  0.000E+00  1.09422E+03  1.171E+00  1.294E+01  5.825E-01  6.794E-01
   1    2    2     1     2    2.3813E+01  2.6654E+00   2.1147E+01  0.000E+00  0.000E+00  0.000E+00  1.08920E+03  1.141E+00  1.255E+01  8.782E-01  1.012E+00
   1    3    3     1     3    2.1147E+01  2.9252E+00   1.8222E+01  0.000E+00  0.000E+00  0.000E+00  1.08351E+03  1.095E+00  1.191E+01  7.143E-01  1.365E+00
   1    3    4     1     4    1.8222E+01  2.4857E+00   1.5737E+01  0.000E+00  0.000E+00  0.000E+00  1.07846E+03  1.049E+00  1.106E+01  6.139E-01  1.350E+00
   1    4    5     2     1    5.7366E+00  2.6722E+00   3.0644E+00  0.000E+00  0.000E+00  0.000E+00  1.07236E+03  4.258E-01  1.200E+01  7.800E-01  1.142E+00
   1    5    6     2     2    3.0644E+00  1.9631E+00   1.1013E+00  0.000E+00  0.000E+00  0.000E+00  1.06678E+03  2.719E-01  1.200E+01  6.000E-01  1.091E+00
   1    6    6     2     3    1.1013E+00  1.1013E+00   0.0000E+00  0.000E+00  0.000E+00  0.000E+00  1.06183E+03  4.173E-02  1.200E+01  6.000E-01  1.014E+00
   1    7    6     2     4    0.0000E+00  0.0000E+00   0.0000E+00  0.000E+00  0.000E+00  0.000E+00  1.05708E+03  0.000E+00  1.200E+01  6.000E-01  1.000E+00
   1    8    6     2     5    0.0000E+00  0.0000E+00   0.0000E+00  0.000E+00  0.000E+00  0.000E+00  1.05236E+03  0.000E+00  1.200E+01  6.000E-01  1.000E+00
   1    3    5     3     1    1.0000E+01  1.8637E+00   8.1363E+00  0.000E+00  0.000E+00  0.000E+00  1.07555E+03  1.909E+00  9.636E+00  7.227E-01  1.289E+00
   1    3    6     3     2    8.1363E+00  1.6038E+00   6.5326E+00  0.000E+00  0.000E+00  0.000E+00  1.07264E+03  1.727E+00  8.909E+00  6.682E-01  1.200E+00
   1    3    7     3     3    6.5326E+00  1.1227E+00   5.4099E+00  0.000E+00  0.000E+00  0.000E+00  1.06987E+03  1.555E+00  8.218E+00  5.547E-01  1.012E+00
   1    4    8     3     4    5.4099E+00  1.6027E+00   3.8072E+00  0.000E+00  0.000E+00  0.000E+00  1.06682E+03  1.364E+00  7.455E+00  6.709E-01  1.194E+00
   1    5    8     3     5    3.8072E+00  1.4906E+00   2.3167E+00  0.000E+00  0.000E+00  0.000E+00  1.06362E+03  1.164E+00  6.655E+00  4.991E-01  1.493E+00
   1    6    8     3     6    2.3167E+00  5.5980E-01   1.7569E+00  0.000E+00  0.000E+00  0.000E+00  1.06158E+03  1.036E+00  6.145E+00  1.844E-01  1.518E+00
   1    5   10     4     1    1.0000E+01  9.0525E-01   9.0947E+00  0.000E+00  0.000E+00  0.000E+00  1.07835E+03  6.210E-01  1.000E+01  2.500E-01  1.207E+00
   1    5    9     4     2    9.0947E+00  1.7835E+00   7.3113E+00  0.000E+00  0.000E+00  0.000E+00  1.07148E+03  5.670E-01  1.000E+01  5.000E-01  1.189E+00
   1    6    8     4     3    7.3113E+00  1.2257E+00   6.0855E+00  0.000E+00  0.000E+00  0.000E+00  1.06368E+03  5.021E-01  1.000E+01  3.500E-01  1.167E+00
   1    6    8     5     1    7.8424E+00  2.6799E-01   7.5744E+00  0.000E+00  0.000E+00  0.000E+00  1.05861E+03  6.131E-01  1.294E+01  5.176E-01  1.726E-01
   1    7    7     5     2    7.5744E+00  1.2242E+00   6.3502E+00  0.000E+00  0.000E+00  0.000E+00  1.05409E+03  5.917E-01  1.217E+01  6.087E-01  6.704E-01
   1    8    7     5     3    6.3502E+00  8.9673E-01   5.4535E+00  0.000E+00  0.000E+00  0.000E+00  1.04981E+03  5.584E-01  1.102E+01  3.859E-01  7.746E-01
   1    8    6     5     4    5.4535E+00  8.0403E-01   4.6494E+00  0.000E+00  0.000E+00  0.000E+00  1.04678E+03  5.288E-01  1.004E+01  2.511E-01  1.068E+00
   1    9    6     6     1    4.6494E+00  1.7844E+00   2.8651E+00  0.000E+00  0.000E+00  0.000E+00  1.04312E+03  3.916E-01  1.200E+01  6.000E-01  9.913E-01
   1   10    7     6     2    2.8651E+00  1.1370E+00   1.7280E+00  0.000E+00  0.000E+00  0.000E+00  1.03847E+03  2.915E-01  1.200E+01  6.000E-01  6.317E-01
   1   11    7     6     3    1.7280E+00  7.9769E-01   9.3033E-01  0.000E+00  0.000E+00  0.000E+00  1.03385E+03  2.100E-01  1.200E+01  6.000E-01  4.432E-01
   1   12    7     6     4    9.3033E-01  3.9080E-01   5.3953E-01  0.000E+00  0.000E+00  0.000E+00  1.02924E+03  1.471E-01  1.200E+01  6.000E-01  2.171E-01
   1   13    7     6     5    5.3953E-01 -7.9670E-01   1.3362E+00  0.000E+00  0.000E+00  0.000E+00  1.02608E+03  1.703E-01  1.200E+01  2.400E-01 -1.107E+00
   1   14    9     7     1    1.5000E+02  1.7585E+00   1.4824E+02  0.000E+00  0.000E+00  0.000E+00  1.03987E+03  2.287E+00  5.529E+01  5.592E+00  1.048E-01
   1   13    8     7     2    1.4824E+02  1.7449E+00   1.4650E+02  0.000E+00  0.000E+00  0.000E+00  1.03478E+03  2.277E+00  5.525E+01  6.147E+00  9.463E-02
   1   13    7     7     3    1.4650E+02  1.6117E+00   1.4488E+02  0.000E+00  0.000E+00  0.000E+00  1.02969E+03  2.268E+00  5.521E+01  5.583E+00  9.622E-02
   1   13    6     8     1    1.4622E+02  4.2735E-01   1.4579E+02  0.000E+00  0.000E+00  0.000E+00  1.02466E+03  2.788E+00  4.043E+01  4.120E+00  3.457E-02
   1   13    5     8     2    1.4579E+02 -2.1234E-01   1.4601E+02  0.000E+00  0.000E+00  0.000E+00  1.01841E+03  2.788E+00  4.042E+01  4.119E+00 -1.718E-02
   1   13    4     8     3    1.4601E+02 -1.0326E+00   1.4704E+02  0.000E+00  0.000E+00  0.000E+00  1.01217E+03  2.792E+00  4.049E+01  4.126E+00 -8.343E-02
   1   13    3     8     4    1.4704E+02 -1.7057E+00   1.4874E+02  0.000E+00  0.000E+00  0.000E+00  1.00593E+03  2.802E+00  4.063E+01  4.140E+00 -1.373E-01
   1   13    2     8     5    1.4874E+02 -1.8741E+00   1.5062E+02  0.000E+00  0.000E+00  0.000E+00  9.99690E+02  2.815E+00  4.081E+01  4.159E+00 -1.502E-01
   1   13    1     8     6    1.5062E+02 -1.8133E+00   1.5243E+02  0.000E+00  0.000E+00  0.000E+00  9.94703E+02  2.828E+00  4.100E+01  2.507E+00 -2.411E-01



 UBDSV3 SAVING "           GW ET" ON UNIT  61 AT TIME STEP 5, STRESS PERIOD 12
 UBDSV3 SAVING "    UZF RECHARGE" ON UNIT  61 AT TIME STEP 5, STRESS PERIOD 12
 UBDSV3 SAVING " SURFACE LEAKAGE" ON UNIT  61 AT TIME STEP 5, STRESS PERIOD 12
 UBDSV3 SAVING "       HORT+DUNN" ON UNIT  61 AT TIME STEP 5, STRESS PERIOD 12
 UBDSV3 SAVING "  STORAGE CHANGE" ON UNIT  61 AT TIME STEP 5, STRESS PERIOD 12


UNSATURATED ZONE PACKAGE VOLUMETRIC BUDGET FOR  TIME STEP     5 STRESS PERIOD   12
  ------------------------------------------------------------------------------



     CUMULATIVE VOLUMES      L**3       RATES FOR THIS TIME STEP      L**3/T
     ------------------                 ------------------------

           IN:                                      IN:
           ---                                      ---
        INFILTRATION =  1518795910.5747          INFILTRATION =           8.4750

          OUT:                                     OUT:
          ----                                     ----
              UZF ET =  2037101689.3540                UZF ET =          36.1743
        UZF RECHARGE =   378934680.1093          UZF RECHARGE =           9.6443

            IN - OUT =  -897240458.8885              IN - OUT =         -37.3436

          STORAGE:                                 STORAGE:
          --------                                 --------
      STORAGE CHANGE =  -896970877.3998        STORAGE CHANGE =         -37.3436

 PERCENT DISCREPANCY IS DIFFERENCE BETWEEN IN-OUT MINUS CHANGE IN STORAGE
 DIVIDED BY THE AVERAGE OF IN AND OUT TIMES 100

 PERCENT DISCREPANCY =          -0.00     PERCENT DISCREPANCY =           0.00






1
  VOLUMETRIC BUDGET FOR ENTIRE MODEL AT END OF TIME STEP    5, STRESS PERIOD  12
  ------------------------------------------------------------------------------

     CUMULATIVE VOLUMES      L**3       RATES FOR THIS TIME STEP      L**3/T
     ------------------                 ------------------------

           IN:                                      IN:
           ---                                      ---
             STORAGE     =   118558656.0000               STORAGE     =           0.9892
       CONSTANT HEAD     =           0.0000         CONSTANT HEAD     =           0.0000
               WELLS     =           0.0000                 WELLS     =           0.0000
     HEAD DEP BOUNDS     =     6080498.0000       HEAD DEP BOUNDS     =           0.2070
      STREAM LEAKAGE     =  1163395200.0000        STREAM LEAKAGE     =          40.0030
        UZF RECHARGE     =   378934624.0000          UZF RECHARGE     =           9.6443
               GW ET     =           0.0000                 GW ET     =           0.0000
     SURFACE LEAKAGE     =           0.0000       SURFACE LEAKAGE     =           0.0000

                TOTAL IN =  1666968960.0000                  TOTAL IN =          50.8434

          OUT:                                     OUT:
          ----                                     ----
             STORAGE     =   457978304.0000               STORAGE     =          22.1793
       CONSTANT HEAD     =           0.0000         CONSTANT HEAD     =           0.0000
               WELLS     =   394199936.0000                 WELLS     =           0.0000
     HEAD DEP BOUNDS     =     8322357.0000       HEAD DEP BOUNDS     =           0.2822
      STREAM LEAKAGE     =   234727696.0000        STREAM LEAKAGE     =           7.4347
        UZF RECHARGE     =           0.0000          UZF RECHARGE     =           0.0000
               GW ET     =   571729344.0000                 GW ET     =          20.9468
     SURFACE LEAKAGE     =           0.0000       SURFACE LEAKAGE     =           0.0000

               TOTAL OUT =  1666957568.0000                 TOTAL OUT =          50.8430

                IN - OUT =       11392.0000                  IN - OUT =       4.5776E-04

     PERCENT DISCREPANCY =           0.00         PERCENT DISCREPANCY =           0.00






         TIME SUMMARY AT END OF TIME STEP    5 IN STRESS PERIOD   12
                    SECONDS     MINUTES      HOURS       DAYS        YEARS
                    -----------------------------------------------------------
   TIME STEP LENGTH 1.21100E+05  2018.3      33.639      1.4016     3.83743E-03
 STRESS PERIOD TIME 5.04972E+05  8416.2      140.27      5.8446     1.60016E-02
         TOTAL TIME 2.94130E+07 4.90216E+05  8170.3      340.43     0.93204    
1
 
 SOLVING FOR HEAD 
                                                   Max.-Head-Change                         Max.-Flux-Residual
  Residual-Control   Outer-Iter.   Inner-Iter.     Column Row Layer    Maximum-Head-Change  Column Row Layer    Maximum-Flux-Residual          L2-NORM 
          0                 1           2             4    7     1       0.4883308142E-01       4    7    1         0.1669794713E+01      0.5049732045E+01
          0                 2           2             3   15     2       0.5915229592E-02       4    7    1        -0.1669806579E+00      0.5449508818E+00
          0                 3           2             3   15     1       0.3968922267E-02       3   15    2         0.2795939299E-01      0.6744625387E-01
          0                 4           2             3   15     1       0.3344779776E-02       3   15    2         0.8040623380E-02      0.1945792789E-01
          0                 5           2             3   15     1       0.2762766601E-02       3   15    1         0.5609069225E-02      0.1027361235E-01
          0                 6           2             3   15     1       0.2267430240E-02       3   15    1         0.4624955237E-02      0.7742404511E-02
          0                 7           2            10   10     1       0.1878480025E-02       3   15    1         0.3793594099E-02      0.6299335217E-02
          0                 8           2            10   10     1       0.1574952791E-02      10   10    1         0.3150240972E-02      0.5185049644E-02
          0                 9           1            10   10     1       0.1320209309E-02      10   10    1         0.2641080030E-02      0.4277712474E-02
          0                10           1            10   10     1       0.1106599554E-02      10   10    1         0.2213856036E-02      0.3531851518E-02
                                                   Max.-Head-Change                         Max.-Flux-Residual
  Residual-Control   Outer-Iter.   Inner-Iter.     Column Row Layer    Maximum-Head-Change  Column Row Layer    Maximum-Flux-Residual          L2-NORM 
          0                11           1            10   10     1       0.9275329267E-03      10   10    1         0.1855644148E-02      0.2917274939E-02
          0                12           1            10   10     1       0.7774372328E-03      10   10    1         0.1555366660E-02      0.2410438237E-02
          0                13           1            10   10     1       0.6516290297E-03      10   10    1         0.1303672638E-02      0.1992263523E-02
          0                14           1            10   10     1       0.5461792793E-03      10   10    1         0.1092706608E-02      0.1647124921E-02
          0                15           1            10   10     1       0.4577938188E-03      10   10    1         0.9158795226E-03      0.1362180934E-02
          0                16           1            10   10     1       0.3837113099E-03      10   10    1         0.7676673198E-03      0.1126864239E-02
          0                17           1            10   10     1       0.3216172014E-03      10   10    1         0.6434395212E-03      0.9324760389E-03
          0                18           1            10   10     1       0.2695714750E-03      10   10    1         0.5393148828E-03      0.7718495715E-03
          0                19           1            10   10     1       0.2259480523E-03      10   10    1         0.4520402182E-03      0.6390829221E-03
          0                20           1            10   10     1       0.1893839932E-03      10   10    1         0.3788887814E-03      0.5293114494E-03
                                                   Max.-Head-Change                         Max.-Flux-Residual
  Residual-Control   Outer-Iter.   Inner-Iter.     Column Row Layer    Maximum-Head-Change  Column Row Layer    Maximum-Flux-Residual          L2-NORM 
          0                21           1            10   10     1       0.1587369159E-03      10   10    1         0.3175750806E-03      0.4385255326E-03
          0                22           1            10   10     1       0.1330493042E-03      10   10    1         0.2661834736E-03      0.3634183100E-03
          0                23           1            10   10     1       0.1115185918E-03      10   10    1         0.2231083167E-03      0.3012640636E-03
          0                24           1            10   10     1       0.9347208862E-04      10   10    1         0.1870037997E-03      0.2498132248E-03

    ------------------------------------------------
       NWT REQUIRED           24 OUTER ITERATIONS 
       AND A TOTAL OF         32 INNER ITERATIONS.
    ------------------------------------------------

 NO OUTPUT CONTROL FOR STRESS PERIOD   12   TIME STEP    6
 
 SOLVING FOR HEAD 
                                                   Max.-Head-Change                         Max.-Flux-Residual
  Residual-Control   Outer-Iter.   Inner-Iter.     Column Row Layer    Maximum-Head-Change  Column Row Layer    Maximum-Flux-Residual          L2-NORM 
          0                 1           2             4    7     1       0.5359648463E-01       4    7    1         0.1666412136E+01      0.5031344607E+01
          0                 2           2             3   15     2       0.6476176851E-02       4    7    1        -0.1666426130E+00      0.5417942422E+00
          0                 3           2             3   15     1       0.4561019054E-02       3   15    2         0.2783185560E-01      0.6647767235E-01
          0                 4           2             3   15     1       0.3780707808E-02       3   15    2         0.8058908071E-02      0.1949703532E-01
          0                 5           2             3   15     1       0.3069676050E-02       3   15    1         0.5753485510E-02      0.1049485058E-01
          0                 6           2             3   15     1       0.2475714480E-02       3   15    1         0.4662880066E-02      0.7836407967E-02
          0                 7           2            10   10     1       0.2038126037E-02       3   15    1         0.3758379454E-02      0.6272049642E-02
          0                 8           2            10   10     1       0.1682069169E-02      10   10    1         0.3102041484E-02      0.5075888406E-02
          0                 9           1            10   10     1       0.1387918516E-02      10   10    1         0.2559972479E-02      0.4117608890E-02
          0                10           1            10   10     1       0.1145127689E-02      10   10    1         0.2112259411E-02      0.3343055584E-02
                                                   Max.-Head-Change                         Max.-Flux-Residual
  Residual-Control   Outer-Iter.   Inner-Iter.     Column Row Layer    Maximum-Head-Change  Column Row Layer    Maximum-Flux-Residual          L2-NORM 
          0                11           1            10   10     1       0.9447872862E-03      10   10    1         0.1742747846E-02      0.2715516730E-02
          0                12           1            10   10     1       0.7794907575E-03      10   10    1         0.1437850815E-02      0.2206623619E-02
          0                13           1            10   10     1       0.6431123680E-03      10   10    1         0.1186288961E-02      0.1793734328E-02
          0                14           1            10   10     1       0.5305941016E-03      10   10    1         0.9787376618E-03      0.1458607730E-02
          0                15           1            10   10     1       0.4377618050E-03      10   10    1         0.8074987078E-03      0.1186502763E-02
          0                16           1            10   10     1       0.3611713409E-03      10   10    1         0.6662194119E-03      0.9654927039E-03
          0                17           1            10   10     1       0.2979810782E-03      10   10    1         0.5496581872E-03      0.7859272300E-03
          0                18           1            10   10     1       0.2458465345E-03      10   10    1         0.4534904137E-03      0.6399758737E-03
          0                19           1            10   10     1       0.2028334112E-03      10   10    1         0.3741480778E-03      0.5213043492E-03
          0                20           1            10   10     1       0.1673458313E-03      10   10    1         0.3086874161E-03      0.4247957969E-03
                                                   Max.-Head-Change                         Max.-Flux-Residual
  Residual-Control   Outer-Iter.   Inner-Iter.     Column Row Layer    Maximum-Head-Change  Column Row Layer    Maximum-Flux-Residual          L2-NORM 
          0                21           1            10   10     1       0.1380671320E-03      10   10    1         0.2546797018E-03      0.3462676147E-03
          0                22           1            10   10     1       0.1139110118E-03      10   10    1         0.2101211360E-03      0.2823573967E-03
          0                23           1            10   10     1       0.9398122817E-04      10   10    1         0.1733585029E-03      0.2303424737E-03

    ------------------------------------------------
       NWT REQUIRED           23 OUTER ITERATIONS 
       AND A TOTAL OF         31 INNER ITERATIONS.
    ------------------------------------------------

 NO OUTPUT CONTROL FOR STRESS PERIOD   12   TIME STEP    7
 
 SOLVING FOR HEAD 
                                                   Max.-Head-Change                         Max.-Flux-Residual
  Residual-Control   Outer-Iter.   Inner-Iter.     Column Row Layer    Maximum-Head-Change  Column Row Layer    Maximum-Flux-Residual          L2-NORM 
          0                 1           2             4    7     1       0.5881119360E-01       4    7    1         0.1662696063E+01      0.5009953921E+01
          0                 2           2             3   15     2       0.7087177361E-02       4    7    1        -0.1662712627E+00      0.5375605297E+00
          0                 3           2             3   15     1       0.5222603934E-02       3   15    2         0.2769356808E-01      0.6482148775E-01
          0                 4           2             3   15     1       0.4252839341E-02       3   15    2         0.8079699253E-02      0.1920187861E-01
          0                 5           2             3   15     1       0.3389905217E-02       3   15    1         0.5872217502E-02      0.1047480768E-01
          0                 6           2             3   15     1       0.2683179647E-02       3   15    1         0.4671698002E-02      0.7731688443E-02
          0                 7           2            10   10     1       0.2148866078E-02       3   15    1         0.3695374104E-02      0.6079999395E-02
          0                 8           2            10   10     1       0.1743463126E-02      10   10    1         0.2967787358E-02      0.4831838395E-02
          0                 9           1            10   10     1       0.1414236760E-02      10   10    1         0.2407744636E-02      0.3849161418E-02
          0                10           1            10   10     1       0.1147098752E-02      10   10    1         0.1953041140E-02      0.3069116813E-02
                                                   Max.-Head-Change                         Max.-Flux-Residual
  Residual-Control   Outer-Iter.   Inner-Iter.     Column Row Layer    Maximum-Head-Change  Column Row Layer    Maximum-Flux-Residual          L2-NORM 
          0                11           1            10   10     1       0.9303995547E-03      10   10    1         0.1584117365E-02      0.2448482598E-02
          0                12           1            10   10     1       0.7546314868E-03      10   10    1         0.1284858093E-02      0.1954213394E-02
          0                13           1            10   10     1       0.6120674596E-03      10   10    1         0.1042126202E-02      0.1560360715E-02
          0                14           1            10   10     1       0.4964360555E-03      10   10    1         0.8452488738E-03      0.1246385267E-02
          0                15           1            10   10     1       0.4026495625E-03      10   10    1         0.6855649482E-03      0.9959858012E-03
          0                16           1            10   10     1       0.3265811490E-03      10   10    1         0.5560483007E-03      0.7962097605E-03
          0                17           1            10   10     1       0.2648835472E-03      10   10    1         0.4509998547E-03      0.6367596690E-03
          0                18           1            10   10     1       0.2148418349E-03      10   10    1         0.3657971160E-03      0.5094441441E-03
          0                19           1            10   10     1       0.1742539866E-03      10   10    1         0.2966908482E-03      0.4077473532E-03
          0                20           1            10   10     1       0.1413339809E-03      10   10    1         0.2406401130E-03      0.3264812989E-03
                                                   Max.-Head-Change                         Max.-Flux-Residual
  Residual-Control   Outer-Iter.   Inner-Iter.     Column Row Layer    Maximum-Head-Change  Column Row Layer    Maximum-Flux-Residual          L2-NORM 
          0                21           1            10   10     1       0.1146332124E-03      10   10    1         0.1951784636E-03      0.2615157790E-03
          0                22           1            10   10     1       0.9297674420E-04      10   10    1         0.1583054141E-03      0.2095597981E-03

    ------------------------------------------------
       NWT REQUIRED           22 OUTER ITERATIONS 
       AND A TOTAL OF         30 INNER ITERATIONS.
    ------------------------------------------------

 NO OUTPUT CONTROL FOR STRESS PERIOD   12   TIME STEP    8
 
 SOLVING FOR HEAD 
                                                   Max.-Head-Change                         Max.-Flux-Residual
  Residual-Control   Outer-Iter.   Inner-Iter.     Column Row Layer    Maximum-Head-Change  Column Row Layer    Maximum-Flux-Residual          L2-NORM 
          0                 1           2             4    7     1       0.6451713201E-01       4    7    1         0.1658612677E+01      0.4985436520E+01
          0                 2           2             3   15     2       0.7315093084E-02       4    7    1        -0.1658632356E+00      0.5323796249E+00
          0                 3           2             3   15     1       0.5661398482E-02       3   15    2         0.2569082032E-01      0.6267651563E-01
          0                 4           2             3   15     1       0.4518910488E-02       3   15    2         0.7487004060E-02      0.1866051254E-01
          0                 5           2             3   15     1       0.3529806752E-02       3   15    1         0.5659826460E-02      0.1024519152E-01
          0                 6           2            10   10     1       0.2781520433E-02       3   15    1         0.4412261390E-02      0.7451777155E-02
          0                 7           2            10   10     1       0.2217434813E-02      10   10    1         0.3486005778E-02      0.5748600025E-02
          0                 8           2            10   10     1       0.1766480925E-02      10   10    1         0.2778505709E-02      0.4480439173E-02
          0                 9           1            10   10     1       0.1406903753E-02      10   10    1         0.2213304544E-02      0.3500735276E-02
          0                10           1            10   10     1       0.1120432942E-02      10   10    1         0.1762736097E-02      0.2737966666E-02
                                                   Max.-Head-Change                         Max.-Flux-Residual
  Residual-Control   Outer-Iter.   Inner-Iter.     Column Row Layer    Maximum-Head-Change  Column Row Layer    Maximum-Flux-Residual          L2-NORM 
          0                11           1            10   10     1       0.8922696482E-03      10   10    1         0.1403801530E-02      0.2142718646E-02
          0                12           1            10   10     1       0.7105631130E-03      10   10    1         0.1117930895E-02      0.1677735263E-02
          0                13           1            10   10     1       0.5658586662E-03      10   10    1         0.8902688406E-03      0.1314281556E-02
          0                14           1            10   10     1       0.4506225096E-03      10   10    1         0.7089675973E-03      0.1030039690E-02
          0                15           1            10   10     1       0.3588538921E-03      10   10    1         0.5645875139E-03      0.8076514951E-03
          0                16           1            10   10     1       0.2857737922E-03      10   10    1         0.4496100843E-03      0.6335711816E-03
          0                17           1            10   10     1       0.2275763472E-03      10   10    1         0.3580476129E-03      0.4972365440E-03
          0                18           1            10   10     1       0.1812307314E-03      10   10    1         0.2851317047E-03      0.3904228661E-03
          0                19           1            10   10     1       0.1443233379E-03      10   10    1         0.2270650202E-03      0.3066889543E-03
          0                20           1            10   10     1       0.1149320851E-03      10   10    1         0.1808235369E-03      0.2410359531E-03
          0                21           1            10   10     1       0.9152632150E-04      10   10    1         0.1439990689E-03      0.1895079759E-03

    ------------------------------------------------
       NWT REQUIRED           21 OUTER ITERATIONS 
       AND A TOTAL OF         29 INNER ITERATIONS.
    ------------------------------------------------

 NO OUTPUT CONTROL FOR STRESS PERIOD   12   TIME STEP    9
 
 SOLVING FOR HEAD 
                                                   Max.-Head-Change                         Max.-Flux-Residual
  Residual-Control   Outer-Iter.   Inner-Iter.     Column Row Layer    Maximum-Head-Change  Column Row Layer    Maximum-Flux-Residual          L2-NORM 
          0                 1           2             4    7     1       0.7075697102E-01       4    7    1         0.1654126027E+01      0.4961932477E+01
          0                 2           2             3   15     2       0.7987261118E-02       4    7    1        -0.1654149489E+00      0.5285483922E+00
          0                 3           2             3   15     1       0.6418631617E-02       3   15    2         0.2551110074E-01      0.6160711645E-01
          0                 4           2             3   15     1       0.5019977690E-02       3   15    2         0.7506641413E-02      0.1866476709E-01
          0                 5           2             3   15     1       0.3839124527E-02       3   15    1         0.5702658466E-02      0.1033979490E-01
          0                 6           2            10   10     1       0.3000400590E-02      10   10    1         0.4356138514E-02      0.7400847513E-02
          0                 7           2            10   10     1       0.2345538082E-02      10   10    1         0.3411061641E-02      0.5592084513E-02
          0                 8           2            10   10     1       0.1832189140E-02      10   10    1         0.2666000621E-02      0.4268166655E-02
          0                 9           1            10   10     1       0.1430821763E-02      10   10    1         0.2082365819E-02      0.3266260802E-02
          0                10           1            10   10     1       0.1117282408E-02      10   10    1         0.1626154684E-02      0.2502301148E-02
                                                   Max.-Head-Change                         Max.-Flux-Residual
  Residual-Control   Outer-Iter.   Inner-Iter.     Column Row Layer    Maximum-Head-Change  Column Row Layer    Maximum-Flux-Residual          L2-NORM 
          0                11           1            10   10     1       0.8724241657E-03      10   10    1         0.1269801388E-02      0.1918378805E-02
          0                12           1            10   10     1       0.6812211942E-03      10   10    1         0.9915151759E-03      0.1471577982E-02
          0                13           1            10   10     1       0.5319210622E-03      10   10    1         0.7742112013E-03      0.1129458093E-02
          0                14           1            10   10     1       0.4153419006E-03      10   10    1         0.6045307073E-03      0.8673405582E-03
          0                15           1            10   10     1       0.3243128424E-03      10   10    1         0.4720379218E-03      0.6664082725E-03
          0                16           1            10   10     1       0.2532342805E-03      10   10    1         0.3685829848E-03      0.5122968254E-03
          0                17           1            10   10     1       0.1977337616E-03      10   10    1         0.2878018840E-03      0.3940327254E-03
          0                18           1            10   10     1       0.1543971066E-03      10   10    1         0.2247252999E-03      0.3032294449E-03
          0                19           1            10   10     1       0.1205584028E-03      10   10    1         0.1754729997E-03      0.2334733959E-03
          0                20           1            10   10     1       0.9413601564E-04      10   10    1         0.1370151626E-03      0.1798571303E-03

    ------------------------------------------------
       NWT REQUIRED           20 OUTER ITERATIONS 
       AND A TOTAL OF         28 INNER ITERATIONS.
    ------------------------------------------------

 OUTPUT CONTROL FOR STRESS PERIOD   12   TIME STEP   10
    PRINT BUDGET
    SAVE BUDGET

  HEAD DEP BOUNDS   PERIOD   12   STEP    10
 BOUNDARY      1   LAYER   1   ROW    13   COL     1   RATE   -0.282137    
 BOUNDARY      2   LAYER   1   ROW    14   COL     9   RATE    0.207114    



 STREAM LISTING     PERIOD     12   STEP       10

 LAYER ROW COL. STREAM  RCH.  FLOW INTO     FLOW TO   FLOW OUT OF   OVRLND.     DIRECT     STREAM       STREAM     STREAM     STREAM   STREAMBED  STREAMBED
                SEG.NO.  NO.  STRM. RCH.    AQUIFER    STRM. RCH.    RUNOFF     PRECIP       ET          HEAD       DEPTH      WIDTH   CONDCTNC.   GRADIENT

   1    1    1     1     1    2.5000E+01  1.1892E+00   2.3811E+01  0.000E+00  0.000E+00  0.000E+00  1.09422E+03  1.171E+00  1.294E+01  5.825E-01  6.806E-01
   1    2    2     1     2    2.3811E+01  2.6690E+00   2.1142E+01  0.000E+00  0.000E+00  0.000E+00  1.08920E+03  1.141E+00  1.254E+01  8.781E-01  1.013E+00
   1    3    3     1     3    2.1142E+01  2.9247E+00   1.8217E+01  0.000E+00  0.000E+00  0.000E+00  1.08351E+03  1.095E+00  1.190E+01  7.142E-01  1.365E+00
   1    3    4     1     4    1.8217E+01  2.4853E+00   1.5732E+01  0.000E+00  0.000E+00  0.000E+00  1.07846E+03  1.049E+00  1.106E+01  6.138E-01  1.350E+00
   1    4    5     2     1    5.7318E+00  2.6719E+00   3.0598E+00  0.000E+00  0.000E+00  0.000E+00  1.07236E+03  4.256E-01  1.200E+01  7.800E-01  1.142E+00
   1    5    6     2     2    3.0598E+00  1.9629E+00   1.0969E+00  0.000E+00  0.000E+00  0.000E+00  1.06678E+03  2.715E-01  1.200E+01  6.000E-01  1.091E+00
   1    6    6     2     3    1.0969E+00  1.0969E+00   0.0000E+00  0.000E+00  0.000E+00  0.000E+00  1.06183E+03  4.163E-02  1.200E+01  6.000E-01  1.014E+00
   1    7    6     2     4    0.0000E+00  0.0000E+00   0.0000E+00  0.000E+00  0.000E+00  0.000E+00  1.05708E+03  0.000E+00  1.200E+01  6.000E-01  1.000E+00
   1    8    6     2     5    0.0000E+00  0.0000E+00   0.0000E+00  0.000E+00  0.000E+00  0.000E+00  1.05236E+03  0.000E+00  1.200E+01  6.000E-01  1.000E+00
   1    3    5     3     1    1.0000E+01  1.8833E+00   8.1167E+00  0.000E+00  0.000E+00  0.000E+00  1.07555E+03  1.909E+00  9.636E+00  7.227E-01  1.303E+00
   1    3    6     3     2    8.1167E+00  1.6250E+00   6.4917E+00  0.000E+00  0.000E+00  0.000E+00  1.07264E+03  1.727E+00  8.909E+00  6.682E-01  1.216E+00
   1    3    7     3     3    6.4917E+00  1.1311E+00   5.3606E+00  0.000E+00  0.000E+00  0.000E+00  1.06987E+03  1.555E+00  8.218E+00  5.547E-01  1.019E+00
   1    4    8     3     4    5.3606E+00  1.6076E+00   3.7530E+00  0.000E+00  0.000E+00  0.000E+00  1.06682E+03  1.364E+00  7.455E+00  6.709E-01  1.198E+00
   1    5    8     3     5    3.7530E+00  1.4933E+00   2.2596E+00  0.000E+00  0.000E+00  0.000E+00  1.06362E+03  1.164E+00  6.655E+00  4.991E-01  1.496E+00
   1    6    8     3     6    2.2596E+00  5.5980E-01   1.6998E+00  0.000E+00  0.000E+00  0.000E+00  1.06158E+03  1.036E+00  6.145E+00  1.844E-01  1.518E+00
   1    5   10     4     1    1.0000E+01  9.0525E-01   9.0947E+00  0.000E+00  0.000E+00  0.000E+00  1.07835E+03  6.210E-01  1.000E+01  2.500E-01  1.207E+00
   1    5    9     4     2    9.0947E+00  1.7835E+00   7.3113E+00  0.000E+00  0.000E+00  0.000E+00  1.07148E+03  5.670E-01  1.000E+01  5.000E-01  1.189E+00
   1    6    8     4     3    7.3113E+00  1.2257E+00   6.0855E+00  0.000E+00  0.000E+00  0.000E+00  1.06368E+03  5.021E-01  1.000E+01  3.500E-01  1.167E+00
   1    6    8     5     1    7.7854E+00  2.6982E-01   7.5155E+00  0.000E+00  0.000E+00  0.000E+00  1.05861E+03  6.115E-01  1.288E+01  5.153E-01  1.745E-01
   1    7    7     5     2    7.5155E+00  1.2209E+00   6.2946E+00  0.000E+00  0.000E+00  0.000E+00  1.05409E+03  5.900E-01  1.211E+01  6.057E-01  6.719E-01
   1    8    7     5     3    6.2946E+00  8.9267E-01   5.4020E+00  0.000E+00  0.000E+00  0.000E+00  1.04981E+03  5.567E-01  1.096E+01  3.838E-01  7.753E-01
   1    8    6     5     4    5.4020E+00  7.9672E-01   4.6052E+00  0.000E+00  0.000E+00  0.000E+00  1.04678E+03  5.271E-01  9.985E+00  2.496E-01  1.064E+00
   1    9    6     6     1    4.6052E+00  1.7798E+00   2.8255E+00  0.000E+00  0.000E+00  0.000E+00  1.04312E+03  3.890E-01  1.200E+01  6.000E-01  9.888E-01
   1   10    7     6     2    2.8255E+00  1.1371E+00   1.6884E+00  0.000E+00  0.000E+00  0.000E+00  1.03847E+03  2.885E-01  1.200E+01  6.000E-01  6.317E-01
   1   11    7     6     3    1.6884E+00  7.9760E-01   8.9076E-01  0.000E+00  0.000E+00  0.000E+00  1.03384E+03  2.062E-01  1.200E+01  6.000E-01  4.431E-01
   1   12    7     6     4    8.9076E-01  3.9238E-01   4.9838E-01  0.000E+00  0.000E+00  0.000E+00  1.02923E+03  1.422E-01  1.200E+01  6.000E-01  2.180E-01
   1   13    7     6     5    4.9838E-01 -7.9747E-01   1.2958E+00  0.000E+00  0.000E+00  0.000E+00  1.02607E+03  1.658E-01  1.200E+01  2.400E-01 -1.108E+00
   1   14    9     7     1    1.5000E+02  1.7761E+00   1.4822E+02  0.000E+00  0.000E+00  0.000E+00  1.03987E+03  2.287E+00  5.529E+01  5.592E+00  1.059E-01
   1   13    8     7     2    1.4822E+02  1.7641E+00   1.4646E+02  0.000E+00  0.000E+00  0.000E+00  1.03478E+03  2.277E+00  5.525E+01  6.147E+00  9.567E-02
   1   13    7     7     3    1.4646E+02  1.6176E+00   1.4484E+02  0.000E+00  0.000E+00  0.000E+00  1.02969E+03  2.268E+00  5.521E+01  5.583E+00  9.657E-02
   1   13    6     8     1    1.4614E+02  4.3138E-01   1.4571E+02  0.000E+00  0.000E+00  0.000E+00  1.02466E+03  2.788E+00  4.042E+01  4.119E+00  3.491E-02
   1   13    5     8     2    1.4571E+02 -2.0828E-01   1.4591E+02  0.000E+00  0.000E+00  0.000E+00  1.01841E+03  2.787E+00  4.041E+01  4.118E+00 -1.686E-02
   1   13    4     8     3    1.4591E+02 -1.0267E+00   1.4694E+02  0.000E+00  0.000E+00  0.000E+00  1.01217E+03  2.791E+00  4.048E+01  4.125E+00 -8.297E-02
   1   13    3     8     4    1.4694E+02 -1.6983E+00   1.4864E+02  0.000E+00  0.000E+00  0.000E+00  1.00593E+03  2.801E+00  4.062E+01  4.139E+00 -1.368E-01
   1   13    2     8     5    1.4864E+02 -1.8582E+00   1.5050E+02  0.000E+00  0.000E+00  0.000E+00  9.99689E+02  2.814E+00  4.080E+01  4.158E+00 -1.490E-01
   1   13    1     8     6    1.5050E+02 -1.8118E+00   1.5231E+02  0.000E+00  0.000E+00  0.000E+00  9.94702E+02  2.827E+00  4.099E+01  2.506E+00 -2.410E-01



 UBDSV3 SAVING "           GW ET" ON UNIT  61 AT TIME STEP 10, STRESS PERIOD 12
 UBDSV3 SAVING "    UZF RECHARGE" ON UNIT  61 AT TIME STEP 10, STRESS PERIOD 12
 UBDSV3 SAVING " SURFACE LEAKAGE" ON UNIT  61 AT TIME STEP 10, STRESS PERIOD 12
 UBDSV3 SAVING "       HORT+DUNN" ON UNIT  61 AT TIME STEP 10, STRESS PERIOD 12
 UBDSV3 SAVING "  STORAGE CHANGE" ON UNIT  61 AT TIME STEP 10, STRESS PERIOD 12


UNSATURATED ZONE PACKAGE VOLUMETRIC BUDGET FOR  TIME STEP    10 STRESS PERIOD   12
  ------------------------------------------------------------------------------



     CUMULATIVE VOLUMES      L**3       RATES FOR THIS TIME STEP      L**3/T
     ------------------                 ------------------------

           IN:                                      IN:
           ---                                      ---
        INFILTRATION =  1525688304.5068          INFILTRATION =           8.4750

          OUT:                                     OUT:
          ----                                     ----
              UZF ET =  2065473631.0103                UZF ET =          33.7467
        UZF RECHARGE =   386550211.1053          UZF RECHARGE =           9.1568

            IN - OUT =  -926335537.6087              IN - OUT =         -34.4285

          STORAGE:                                 STORAGE:
          --------                                 --------
      STORAGE CHANGE =  -926065325.5628        STORAGE CHANGE =         -34.4252

 PERCENT DISCREPANCY IS DIFFERENCE BETWEEN IN-OUT MINUS CHANGE IN STORAGE
 DIVIDED BY THE AVERAGE OF IN AND OUT TIMES 100

 PERCENT DISCREPANCY =          -0.00     PERCENT DISCREPANCY =          -0.01






1
  VOLUMETRIC BUDGET FOR ENTIRE MODEL AT END OF TIME STEP   10, STRESS PERIOD  12
  ------------------------------------------------------------------------------

     CUMULATIVE VOLUMES      L**3       RATES FOR THIS TIME STEP      L**3/T
     ------------------                 ------------------------

           IN:                                      IN:
           ---                                      ---
             STORAGE     =   119422160.0000               STORAGE     =           1.1188
       CONSTANT HEAD     =           0.0000         CONSTANT HEAD     =           0.0000
               WELLS     =           0.0000                 WELLS     =           0.0000
     HEAD DEP BOUNDS     =     6248895.0000       HEAD DEP BOUNDS     =           0.2071
      STREAM LEAKAGE     =  1195971456.0000        STREAM LEAKAGE     =          40.0908
        UZF RECHARGE     =   386550176.0000          UZF RECHARGE     =           9.1568
               GW ET     =           0.0000                 GW ET     =           0.0000
     SURFACE LEAKAGE     =           0.0000       SURFACE LEAKAGE     =           0.0000

                TOTAL IN =  1708192640.0000                  TOTAL IN =          50.5734

          OUT:                                     OUT:
          ----                                     ----
             STORAGE     =   475684576.0000               STORAGE     =          21.4978
       CONSTANT HEAD     =           0.0000         CONSTANT HEAD     =           0.0000
               WELLS     =   394199936.0000                 WELLS     =           0.0000
     HEAD DEP BOUNDS     =     8551823.0000       HEAD DEP BOUNDS     =           0.2821
      STREAM LEAKAGE     =   240756768.0000        STREAM LEAKAGE     =           7.4007
        UZF RECHARGE     =           0.0000          UZF RECHARGE     =           0.0000
               GW ET     =   588988032.0000                 GW ET     =          21.3924
     SURFACE LEAKAGE     =           0.0000       SURFACE LEAKAGE     =           0.0000

               TOTAL OUT =  1708181120.0000                 TOTAL OUT =          50.5731

                IN - OUT =       11520.0000                  IN - OUT =       3.0518E-04

     PERCENT DISCREPANCY =           0.00         PERCENT DISCREPANCY =           0.00






         TIME SUMMARY AT END OF TIME STEP   10 IN STRESS PERIOD   12
                    SECONDS     MINUTES      HOURS       DAYS        YEARS
                    -----------------------------------------------------------
   TIME STEP LENGTH 1.95033E+05  3250.6      54.176      2.2573     6.18023E-03
 STRESS PERIOD TIME 1.31823E+06  21971.      366.18      15.257     4.17723E-02
         TOTAL TIME 3.02262E+07 5.03770E+05  8396.2      349.84     0.95781    
1
 
 SOLVING FOR HEAD 
                                                   Max.-Head-Change                         Max.-Flux-Residual
  Residual-Control   Outer-Iter.   Inner-Iter.     Column Row Layer    Maximum-Head-Change  Column Row Layer    Maximum-Flux-Residual          L2-NORM 
          0                 1           2             4    7     1       0.7757652691E-01       4    7    1         0.1649193366E+01      0.4933114186E+01
          0                 2           2             3   15     1       0.8446874089E-02       5    7    1        -0.1546387389E+00      0.4508835335E+00
          0                 3           2             3   15     1       0.6938042313E-02       3   15    2         0.2374346610E-01      0.5740954284E-01
          0                 4           2             3   15     1       0.5303352098E-02       3   15    1         0.7192725952E-02      0.1772142301E-01
          0                 5           2             3   15     1       0.3962927870E-02       3   15    1         0.5462509315E-02      0.9794019027E-02
          0                 6           2            10   10     1       0.3016858539E-02       3   15    1         0.4073085129E-02      0.6882452195E-02
          0                 7           2            10   10     1       0.2309064548E-02      10   10    1         0.3110512030E-02      0.5087102839E-02
          0                 8           2            10   10     1       0.1765938356E-02      10   10    1         0.2380222088E-02      0.3796877592E-02
          0                 9           1            10   10     1       0.1350205865E-02      10   10    1         0.1820223942E-02      0.2841458821E-02
          0                10           1            10   10     1       0.1032251920E-02      10   10    1         0.1391677067E-02      0.2128962106E-02
                                                   Max.-Head-Change                         Max.-Flux-Residual
  Residual-Control   Outer-Iter.   Inner-Iter.     Column Row Layer    Maximum-Head-Change  Column Row Layer    Maximum-Flux-Residual          L2-NORM 
          0                11           1            10   10     1       0.7891478173E-03      10   10    1         0.1063948374E-02      0.1596372829E-02
          0                12           1            10   10     1       0.6032906952E-03      10   10    1         0.8133772204E-03      0.1197811626E-02
          0                13           1            10   10     1       0.4612043742E-03      10   10    1         0.6218131092E-03      0.8993198146E-03
          0                14           1            10   10     1       0.3525816561E-03      10   10    1         0.4753642708E-03      0.6756249891E-03
          0                15           1            10   10     1       0.2695416260E-03      10   10    1         0.3634065860E-03      0.5078803547E-03
          0                16           1            10   10     1       0.2060591578E-03      10   10    1         0.2778170628E-03      0.3820148753E-03
          0                17           1            10   10     1       0.1575280805E-03      10   10    1         0.2123855632E-03      0.2875146626E-03
          0                18           1            10   10     1       0.1204270462E-03      10   10    1         0.1623644906E-03      0.2165208682E-03
          0                19           1            10   10     1       0.9206405274E-04      10   10    1         0.1241243856E-03      0.1631533534E-03

    ------------------------------------------------
       NWT REQUIRED           19 OUTER ITERATIONS 
       AND A TOTAL OF         27 INNER ITERATIONS.
    ------------------------------------------------

 NO OUTPUT CONTROL FOR STRESS PERIOD   12   TIME STEP   11
 
 SOLVING FOR HEAD 
                                                   Max.-Head-Change                         Max.-Flux-Residual
  Residual-Control   Outer-Iter.   Inner-Iter.     Column Row Layer    Maximum-Head-Change  Column Row Layer    Maximum-Flux-Residual          L2-NORM 
          0                 1           2             4    7     1       0.8751169609E-01       4    7    1         0.1692075604E+01      0.4954086472E+01
          0                 2           2             3   15     1       0.9571284941E-02       4    7    1         0.1448449909E+00      0.4319572145E+00
          0                 3           2             3   15     1       0.7694548277E-02       3   15    2         0.2325915329E-01      0.5692253783E-01
          0                 4           2             3   15     1       0.5746960243E-02       3   15    1         0.7234141451E-02      0.1772187324E-01
          0                 5           2            10   10     1       0.4265440691E-02       3   15    1         0.5366646028E-02      0.9755215865E-02
          0                 6           2            10   10     1       0.3200292935E-02      10   10    1         0.3990558134E-02      0.6716500752E-02
          0                 7           2            10   10     1       0.2395118059E-02      10   10    1         0.2991943389E-02      0.4848017433E-02
          0                 8           2            10   10     1       0.1790986208E-02      10   10    1         0.2238649801E-02      0.3533577510E-02
          0                 9           1            10   10     1       0.1338844828E-02      10   10    1         0.1673847057E-02      0.2582876938E-02
          0                10           1            10   10     1       0.1000747779E-02      10   10    1         0.1251242725E-02      0.1890406365E-02
                                                   Max.-Head-Change                         Max.-Flux-Residual
  Residual-Control   Outer-Iter.   Inner-Iter.     Column Row Layer    Maximum-Head-Change  Column Row Layer    Maximum-Flux-Residual          L2-NORM 
          0                11           1            10   10     1       0.7480042803E-03      10   10    1         0.9352587618E-03      0.1384840624E-02
          0                12           1            10   10     1       0.5590857397E-03      10   10    1         0.6990525370E-03      0.1015254338E-02
          0                13           1            10   10     1       0.4178794330E-03      10   10    1         0.5224968431E-03      0.7448331591E-03
          0                14           1            10   10     1       0.3123366738E-03      10   10    1         0.3905315233E-03      0.5468148933E-03
          0                15           1            10   10     1       0.2334504759E-03      10   10    1         0.2918959245E-03      0.4017211892E-03
          0                16           1            10   10     1       0.1744883669E-03      10   10    1         0.2181723956E-03      0.2953300724E-03
          0                17           1            10   10     1       0.1304181906E-03      10   10    1         0.1630690394E-03      0.2172636690E-03
          0                18           1            10   10     1       0.9747872823E-04      10   10    1         0.1218830199E-03      0.1599376337E-03

    ------------------------------------------------
       NWT REQUIRED           18 OUTER ITERATIONS 
       AND A TOTAL OF         26 INNER ITERATIONS.
    ------------------------------------------------

 NO OUTPUT CONTROL FOR STRESS PERIOD   12   TIME STEP   12
 
 SOLVING FOR HEAD 
                                                   Max.-Head-Change                         Max.-Flux-Residual
  Residual-Control   Outer-Iter.   Inner-Iter.     Column Row Layer    Maximum-Head-Change  Column Row Layer    Maximum-Flux-Residual          L2-NORM 
          0                 1           2             4    7     1       0.9574311470E-01       4    7    1         0.1683323019E+01      0.4995011998E+01
          0                 2           2             3   15     1       0.1045005153E-01       4    7    1         0.1440246413E+00      0.4318155431E+00
          0                 3           2             3   15     1       0.8193078230E-02       3   15    2         0.2151964519E-01      0.5749333148E-01
          0                 4           2             3   15     1       0.5963156341E-02       3   15    1         0.6982376517E-02      0.1676394007E-01
          0                 5           2            10   10     1       0.4307412653E-02       3   15    1         0.5046660383E-02      0.9117804234E-02
          0                 6           2            10   10     1       0.3154906967E-02      10   10    1         0.3653166946E-02      0.6142045056E-02
          0                 7           2            10   10     1       0.2304861506E-02      10   10    1         0.2673760716E-02      0.4323656954E-02
          0                 8           2            10   10     1       0.1682370512E-02      10   10    1         0.1952864889E-02      0.3072439078E-02
          0                 9           1            10   10     1       0.1227629406E-02      10   10    1         0.1425317766E-02      0.2189679690E-02
          0                10           1            10   10     1       0.8957107339E-03      10   10    1         0.1040026761E-02      0.1562752737E-02
                                                   Max.-Head-Change                         Max.-Flux-Residual
  Residual-Control   Outer-Iter.   Inner-Iter.     Column Row Layer    Maximum-Head-Change  Column Row Layer    Maximum-Flux-Residual          L2-NORM 
          0                11           1            10   10     1       0.6535107579E-03      10   10    1         0.7588232201E-03      0.1116419576E-02
          0                12           1            10   10     1       0.4767957334E-03      10   10    1         0.5536356798E-03      0.7982400661E-03
          0                13           1            10   10     1       0.3478645263E-03      10   10    1         0.4039272757E-03      0.5712009791E-03
          0                14           1            10   10     1       0.2537974748E-03      10   10    1         0.2947004464E-03      0.4090590345E-03
          0                15           1            10   10     1       0.1851672748E-03      10   10    1         0.2150096207E-03      0.2931703443E-03
          0                16           1            10   10     1       0.1350955677E-03      10   10    1         0.1568681649E-03      0.2102755845E-03
          0                17           1            10   10     1       0.9856391477E-04      10   10    1         0.1144489149E-03      0.1509371831E-03

    ------------------------------------------------
       NWT REQUIRED           17 OUTER ITERATIONS 
       AND A TOTAL OF         25 INNER ITERATIONS.
    ------------------------------------------------

 NO OUTPUT CONTROL FOR STRESS PERIOD   12   TIME STEP   13
 
 SOLVING FOR HEAD 
                                                   Max.-Head-Change                         Max.-Flux-Residual
  Residual-Control   Outer-Iter.   Inner-Iter.     Column Row Layer    Maximum-Head-Change  Column Row Layer    Maximum-Flux-Residual          L2-NORM 
          0                 1           2             4    7     1       0.1047598891E+00       4    7    1         0.1675072278E+01      0.4982622832E+01
          0                 2           2             3   15     1       0.1179466223E-01       4    7    1         0.1431952185E+00      0.4493994078E+00
          0                 3           2             3   15     1       0.9026166568E-02       3   15    2         0.2113728784E-01      0.5704706437E-01
          0                 4           2             3   15     1       0.6400756441E-02       3   15    1         0.6973000667E-02      0.1657812970E-01
          0                 5           2            10   10     1       0.4541321445E-02       3   15    1         0.4908802885E-02      0.8944309351E-02
          0                 6           2            10   10     1       0.3243305182E-02      10   10    1         0.3490949368E-02      0.5877638550E-02
          0                 7           2            10   10     1       0.2309922582E-02      10   10    1         0.2491186651E-02      0.4026754587E-02
          0                 8           2            10   10     1       0.1643573728E-02      10   10    1         0.1773765829E-02      0.2785229956E-02
          0                 9           1            10   10     1       0.1169054113E-02      10   10    1         0.1261961801E-02      0.1932548344E-02
          0                10           1            10   10     1       0.8314358454E-03      10   10    1         0.8975878965E-03      0.1343018853E-02
                                                   Max.-Head-Change                         Max.-Flux-Residual
  Residual-Control   Outer-Iter.   Inner-Iter.     Column Row Layer    Maximum-Head-Change  Column Row Layer    Maximum-Flux-Residual          L2-NORM 
          0                11           1            10   10     1       0.5912959363E-03      10   10    1         0.6383604871E-03      0.9343613899E-03
          0                12           1            10   10     1       0.4205084655E-03      10   10    1         0.4539838067E-03      0.6506719021E-03
          0                13           1            10   10     1       0.2990490219E-03      10   10    1         0.3228565433E-03      0.4535260076E-03
          0                14           1            10   10     1       0.2126714818E-03      10   10    1         0.2296027173E-03      0.3163915745E-03
          0                15           1            10   10     1       0.1512432009E-03      10   10    1         0.1632840728E-03      0.2209153243E-03
          0                16           1            10   10     1       0.1075579139E-03      10   10    1         0.1161209031E-03      0.1543961044E-03
          0                17           1            10   10     1       0.7649073731E-04      10   10    1         0.8258038588E-04      0.1080006735E-03

    ------------------------------------------------
       NWT REQUIRED           17 OUTER ITERATIONS 
       AND A TOTAL OF         25 INNER ITERATIONS.
    ------------------------------------------------

 NO OUTPUT CONTROL FOR STRESS PERIOD   12   TIME STEP   14
 
 SOLVING FOR HEAD 
                                                   Max.-Head-Change                         Max.-Flux-Residual
  Residual-Control   Outer-Iter.   Inner-Iter.     Column Row Layer    Maximum-Head-Change  Column Row Layer    Maximum-Flux-Residual          L2-NORM 
          0                 1           2             4    7     1       0.1145665445E+00       4    7    1         0.1666096782E+01      0.4935242960E+01
          0                 2           2             3   15     1       0.1250166513E-01       4    7    1         0.1422869745E+00      0.4405561528E+00
          0                 3           2             3   15     1       0.9301974398E-02       3   15    2         0.1908698148E-01      0.5401980568E-01
          0                 4           2            10   10     1       0.6462052161E-02       3   15    1         0.6510632820E-02      0.1537904483E-01
          0                 5           2            10   10     1       0.4527607036E-02      10   10    1         0.4511490371E-02      0.8179909700E-02
          0                 6           2            10   10     1       0.3146713975E-02      10   10    1         0.3153490104E-02      0.5240009946E-02
          0                 7           2            10   10     1       0.2180837582E-02      10   10    1         0.2189897439E-02      0.3491406479E-02
          0                 8           1            10   10     1       0.1509942630E-02      10   10    1         0.1517277577E-02      0.2348248167E-02
          0                 9           1            10   10     1       0.1045073168E-02      10   10    1         0.1050408711E-02      0.1584479754E-02
          0                10           1            10   10     1       0.7232356679E-03      10   10    1         0.7269911918E-03      0.1070923459E-02
                                                   Max.-Head-Change                         Max.-Flux-Residual
  Residual-Control   Outer-Iter.   Inner-Iter.     Column Row Layer    Maximum-Head-Change  Column Row Layer    Maximum-Flux-Residual          L2-NORM 
          0                11           1            10   10     1       0.5004886990E-03      10   10    1         0.5031029596E-03      0.7246984294E-03
          0                12           1            10   10     1       0.3463395857E-03      10   10    1         0.3481524167E-03      0.4909607471E-03
          0                13           1            10   10     1       0.2396666890E-03      10   10    1         0.2409220832E-03      0.3329535834E-03
          0                14           1            10   10     1       0.1658488274E-03      10   10    1         0.1667177821E-03      0.2259692470E-03
          0                15           1            10   10     1       0.1147669525E-03      10   10    1         0.1153683218E-03      0.1535315898E-03
          0                16           1            10   10     1       0.7941841163E-04      10   10    1         0.7983457084E-04      0.1044063483E-03

    ------------------------------------------------
       NWT REQUIRED           16 OUTER ITERATIONS 
       AND A TOTAL OF         23 INNER ITERATIONS.
    ------------------------------------------------

 OUTPUT CONTROL FOR STRESS PERIOD   12   TIME STEP   15
    PRINT BUDGET
    PRINT HEAD FOR ALL LAYERS
    SAVE HEAD FOR ALL LAYERS
    SAVE BUDGET

  HEAD DEP BOUNDS   PERIOD   12   STEP    15
 BOUNDARY      1   LAYER   1   ROW    13   COL     1   RATE   -0.282085    
 BOUNDARY      2   LAYER   1   ROW    14   COL     9   RATE    0.207267    



 STREAM LISTING     PERIOD     12   STEP       15

 LAYER ROW COL. STREAM  RCH.  FLOW INTO     FLOW TO   FLOW OUT OF   OVRLND.     DIRECT     STREAM       STREAM     STREAM     STREAM   STREAMBED  STREAMBED
                SEG.NO.  NO.  STRM. RCH.    AQUIFER    STRM. RCH.    RUNOFF     PRECIP       ET          HEAD       DEPTH      WIDTH   CONDCTNC.   GRADIENT

   1    1    1     1     1    2.5000E+01  1.1927E+00   2.3807E+01  0.000E+00  0.000E+00  0.000E+00  1.09422E+03  1.171E+00  1.294E+01  5.824E-01  6.826E-01
   1    2    2     1     2    2.3807E+01  2.6754E+00   2.1132E+01  0.000E+00  0.000E+00  0.000E+00  1.08920E+03  1.141E+00  1.254E+01  8.780E-01  1.016E+00
   1    3    3     1     3    2.1132E+01  2.9239E+00   1.8208E+01  0.000E+00  0.000E+00  0.000E+00  1.08351E+03  1.095E+00  1.190E+01  7.141E-01  1.365E+00
   1    3    4     1     4    1.8208E+01  2.4846E+00   1.5723E+01  0.000E+00  0.000E+00  0.000E+00  1.07846E+03  1.049E+00  1.106E+01  6.137E-01  1.350E+00
   1    4    5     2     1    5.7235E+00  2.6716E+00   3.0519E+00  0.000E+00  0.000E+00  0.000E+00  1.07236E+03  4.251E-01  1.200E+01  7.800E-01  1.142E+00
   1    5    6     2     2    3.0519E+00  1.9625E+00   1.0893E+00  0.000E+00  0.000E+00  0.000E+00  1.06678E+03  2.709E-01  1.200E+01  6.000E-01  1.090E+00
   1    6    6     2     3    1.0893E+00  1.0893E+00   0.0000E+00  0.000E+00  0.000E+00  0.000E+00  1.06183E+03  4.146E-02  1.200E+01  6.000E-01  1.014E+00
   1    7    6     2     4    0.0000E+00  0.0000E+00   0.0000E+00  0.000E+00  0.000E+00  0.000E+00  1.05708E+03  0.000E+00  1.200E+01  6.000E-01  1.000E+00
   1    8    6     2     5    0.0000E+00  0.0000E+00   0.0000E+00  0.000E+00  0.000E+00  0.000E+00  1.05236E+03  0.000E+00  1.200E+01  6.000E-01  1.000E+00
   1    3    5     3     1    1.0000E+01  1.9021E+00   8.0979E+00  0.000E+00  0.000E+00  0.000E+00  1.07555E+03  1.909E+00  9.636E+00  7.227E-01  1.316E+00
   1    3    6     3     2    8.0979E+00  1.6478E+00   6.4500E+00  0.000E+00  0.000E+00  0.000E+00  1.07264E+03  1.727E+00  8.909E+00  6.682E-01  1.233E+00
   1    3    7     3     3    6.4500E+00  1.1422E+00   5.3078E+00  0.000E+00  0.000E+00  0.000E+00  1.06987E+03  1.555E+00  8.218E+00  5.547E-01  1.030E+00
   1    4    8     3     4    5.3078E+00  1.6150E+00   3.6929E+00  0.000E+00  0.000E+00  0.000E+00  1.06682E+03  1.364E+00  7.455E+00  6.709E-01  1.204E+00
   1    5    8     3     5    3.6929E+00  1.4985E+00   2.1943E+00  0.000E+00  0.000E+00  0.000E+00  1.06362E+03  1.164E+00  6.655E+00  4.991E-01  1.501E+00
   1    6    8     3     6    2.1943E+00  5.5980E-01   1.6345E+00  0.000E+00  0.000E+00  0.000E+00  1.06158E+03  1.036E+00  6.145E+00  1.844E-01  1.518E+00
   1    5   10     4     1    1.0000E+01  9.0525E-01   9.0947E+00  0.000E+00  0.000E+00  0.000E+00  1.07835E+03  6.210E-01  1.000E+01  2.500E-01  1.207E+00
   1    5    9     4     2    9.0947E+00  1.7835E+00   7.3113E+00  0.000E+00  0.000E+00  0.000E+00  1.07148E+03  5.670E-01  1.000E+01  5.000E-01  1.189E+00
   1    6    8     4     3    7.3113E+00  1.2257E+00   6.0855E+00  0.000E+00  0.000E+00  0.000E+00  1.06368E+03  5.021E-01  1.000E+01  3.500E-01  1.167E+00
   1    6    8     5     1    7.7201E+00  2.7406E-01   7.4460E+00  0.000E+00  0.000E+00  0.000E+00  1.05861E+03  6.096E-01  1.281E+01  5.126E-01  1.782E-01
   1    7    7     5     2    7.4460E+00  1.2175E+00   6.2285E+00  0.000E+00  0.000E+00  0.000E+00  1.05409E+03  5.879E-01  1.204E+01  6.021E-01  6.740E-01
   1    8    7     5     3    6.2285E+00  8.8781E-01   5.3407E+00  0.000E+00  0.000E+00  0.000E+00  1.04980E+03  5.545E-01  1.089E+01  3.813E-01  7.762E-01
   1    8    6     5     4    5.3407E+00  7.8575E-01   4.5549E+00  0.000E+00  0.000E+00  0.000E+00  1.04678E+03  5.250E-01  9.918E+00  2.480E-01  1.056E+00
   1    9    6     6     1    4.5549E+00  1.7699E+00   2.7850E+00  0.000E+00  0.000E+00  0.000E+00  1.04311E+03  3.862E-01  1.200E+01  6.000E-01  9.833E-01
   1   10    7     6     2    2.7850E+00  1.1386E+00   1.6464E+00  0.000E+00  0.000E+00  0.000E+00  1.03847E+03  2.853E-01  1.200E+01  6.000E-01  6.326E-01
   1   11    7     6     3    1.6464E+00  7.9933E-01   8.4707E-01  0.000E+00  0.000E+00  0.000E+00  1.03384E+03  2.020E-01  1.200E+01  6.000E-01  4.441E-01
   1   12    7     6     4    8.4707E-01  3.9752E-01   4.4954E-01  0.000E+00  0.000E+00  0.000E+00  1.02923E+03  1.365E-01  1.200E+01  6.000E-01  2.208E-01
   1   13    7     6     5    4.4954E-01 -7.9846E-01   1.2480E+00  0.000E+00  0.000E+00  0.000E+00  1.02607E+03  1.604E-01  1.200E+01  2.400E-01 -1.109E+00
   1   14    9     7     1    1.5000E+02  1.7983E+00   1.4820E+02  0.000E+00  0.000E+00  0.000E+00  1.03987E+03  2.286E+00  5.529E+01  5.592E+00  1.072E-01
   1   13    8     7     2    1.4820E+02  1.7871E+00   1.4641E+02  0.000E+00  0.000E+00  0.000E+00  1.03478E+03  2.277E+00  5.525E+01  6.146E+00  9.692E-02
   1   13    7     7     3    1.4641E+02  1.6233E+00   1.4479E+02  0.000E+00  0.000E+00  0.000E+00  1.02969E+03  2.268E+00  5.521E+01  5.583E+00  9.692E-02
   1   13    6     8     1    1.4604E+02  4.3409E-01   1.4561E+02  0.000E+00  0.000E+00  0.000E+00  1.02466E+03  2.787E+00  4.041E+01  4.118E+00  3.513E-02
   1   13    5     8     2    1.4561E+02 -2.0779E-01   1.4581E+02  0.000E+00  0.000E+00  0.000E+00  1.01841E+03  2.786E+00  4.040E+01  4.117E+00 -1.682E-02
   1   13    4     8     3    1.4581E+02 -1.0249E+00   1.4684E+02  0.000E+00  0.000E+00  0.000E+00  1.01217E+03  2.791E+00  4.047E+01  4.124E+00 -8.284E-02
   1   13    3     8     4    1.4684E+02 -1.6916E+00   1.4853E+02  0.000E+00  0.000E+00  0.000E+00  1.00593E+03  2.800E+00  4.061E+01  4.138E+00 -1.363E-01
   1   13    2     8     5    1.4853E+02 -1.8365E+00   1.5037E+02  0.000E+00  0.000E+00  0.000E+00  9.99688E+02  2.813E+00  4.079E+01  4.156E+00 -1.473E-01
   1   13    1     8     6    1.5037E+02 -1.8101E+00   1.5218E+02  0.000E+00  0.000E+00  0.000E+00  9.94701E+02  2.826E+00  4.097E+01  2.505E+00 -2.408E-01



 UBDSV3 SAVING "           GW ET" ON UNIT  61 AT TIME STEP 15, STRESS PERIOD 12
 UBDSV3 SAVING "    UZF RECHARGE" ON UNIT  61 AT TIME STEP 15, STRESS PERIOD 12
 UBDSV3 SAVING " SURFACE LEAKAGE" ON UNIT  61 AT TIME STEP 15, STRESS PERIOD 12
 UBDSV3 SAVING "       HORT+DUNN" ON UNIT  61 AT TIME STEP 15, STRESS PERIOD 12
 UBDSV3 SAVING "  STORAGE CHANGE" ON UNIT  61 AT TIME STEP 15, STRESS PERIOD 12


UNSATURATED ZONE PACKAGE VOLUMETRIC BUDGET FOR  TIME STEP    15 STRESS PERIOD   12
  ------------------------------------------------------------------------------



     CUMULATIVE VOLUMES      L**3       RATES FOR THIS TIME STEP      L**3/T
     ------------------                 ------------------------

           IN:                                      IN:
           ---                                      ---
        INFILTRATION =  1536788574.2900          INFILTRATION =           8.4750

          OUT:                                     OUT:
          ----                                     ----
              UZF ET =  2105555774.7485                UZF ET =          29.5288
        UZF RECHARGE =   401293728.0871          UZF RECHARGE =          11.9225

            IN - OUT =  -970060928.5456              IN - OUT =         -32.9763

          STORAGE:                                 STORAGE:
          --------                                 --------
      STORAGE CHANGE =  -969842062.6413        STORAGE CHANGE =         -32.9722

 PERCENT DISCREPANCY IS DIFFERENCE BETWEEN IN-OUT MINUS CHANGE IN STORAGE
 DIVIDED BY THE AVERAGE OF IN AND OUT TIMES 100

 PERCENT DISCREPANCY =          -0.00     PERCENT DISCREPANCY =          -0.01






1
              HEAD IN LAYER 1 AT END OF TIME STEP 15 IN STRESS PERIOD 12
  ---------------------------------------------------------------------------

           1       2       3       4       5       6       7       8       9      10
 ...................................................................................
   1  1092.17 1087.67 6999.00 6999.00 6999.00 6999.00 6999.00 6999.00 6999.00 6999.00
   2  1087.57 1086.15 1078.41 6999.00 6999.00 1071.59 1071.12 1069.18 6999.00 6999.00
   3  6999.00 1074.79 1078.86 1074.27 1072.91 1070.17 1067.81 1065.89 6999.00 6999.00
   4  1067.70 1066.12 1065.10 1063.82 1066.33 1061.57 1059.96 1064.41 1062.29 6999.00
   5  1064.29 1059.60 1055.93 1053.80 1056.06 1060.62 1057.35 1060.62 1064.43 1065.64
   6  1060.48 1054.40 1049.90 1041.11 1044.13 1053.56 1054.16 1058.07 1057.88 1063.21
   7  1057.51 1049.34 1044.51 1032.96 1036.49 1046.28 1052.07 1052.73 1053.54 6999.00
   8  6999.00 1043.33 1039.81 1028.99 1032.33 1043.61 1047.48 1047.57 1049.92 6999.00
   9  6999.00 1037.39 1034.96 1025.16 1028.83 1040.16 1040.31 1041.72 1045.60 6999.00
  10  6999.00 1031.50 1030.36 1022.79 1025.16 1032.62 1036.57 1037.40 1041.92 1047.65
  11  6999.00 1023.95 1024.52 1024.41 1026.01 1029.19 1032.51 1033.97 1037.96 6999.00
  12  1006.75 1013.43 1015.92 1019.56 1022.40 1025.57 1028.56 1030.44 1035.30 6999.00
  13   995.42 1000.13 1006.33 1012.41 1018.46 1024.56 1029.40 1034.49 1035.84 6999.00
  14  6999.00 1012.23 1016.92 1021.52 1025.43 1028.47 1030.99 1034.61 1039.55 6999.00
  15  6999.00 6999.00 1027.48 1029.88 1032.90 1034.69 6999.00 6999.00 6999.00 6999.00
1
              HEAD IN LAYER 2 AT END OF TIME STEP 15 IN STRESS PERIOD 12
  ---------------------------------------------------------------------------

           1       2       3       4       5       6       7       8       9      10
 ...................................................................................
   1  1090.99 1087.11 6999.00 6999.00 6999.00 6999.00 6999.00 6999.00 6999.00 6999.00
   2  1087.34 1080.80 1075.52 6999.00 6999.00 1070.77 1070.35 1068.89 6999.00 6999.00
   3  6999.00 1072.79 1068.31 1064.58 1063.80 1064.38 1064.98 1065.47 6999.00 6999.00
   4  1066.78 1065.57 1062.60 1059.24 1057.82 1057.32 1058.56 1061.70 1061.89 6999.00
   5  1063.37 1059.13 1055.95 1053.98 1053.69 1053.96 1054.27 1056.09 1060.02 1063.89
   6  1059.62 1054.08 1050.46 1048.99 1049.21 1050.35 1051.58 1053.42 1057.02 1062.90
   7  1056.65 1049.09 1045.42 1044.27 1044.87 1046.36 1048.19 1050.63 1053.43 6999.00
   8  6999.00 1043.13 1040.62 1039.89 1040.65 1042.21 1043.97 1047.40 1049.64 6999.00
   9  6999.00 1037.06 1035.68 1035.52 1036.44 1038.03 1039.41 1041.66 1045.30 6999.00
  10  6999.00 1031.15 1030.94 1031.58 1032.74 1034.30 1035.52 1037.37 1041.61 1047.65
  11  6999.00 1024.13 1025.34 1027.93 1029.58 1031.29 1032.71 1034.21 1037.68 6999.00
  12  1007.04 1014.80 1019.95 1023.88 1026.58 1028.84 1030.50 1031.81 1035.24 6999.00
  13  1000.29 1007.78 1015.83 1021.17 1024.72 1027.62 1030.10 1032.68 1035.43 6999.00
  14  6999.00 1012.52 1017.47 1022.02 1025.70 1028.62 1030.91 1034.23 1036.90 6999.00
  15  6999.00 6999.00 1027.48 1029.88 1032.30 1034.09 6999.00 6999.00 6999.00 6999.00

 HEAD WILL BE SAVED ON UNIT   58 AT END OF TIME STEP   15, STRESS PERIOD   12
1
  VOLUMETRIC BUDGET FOR ENTIRE MODEL AT END OF TIME STEP   15, STRESS PERIOD  12
  ------------------------------------------------------------------------------

     CUMULATIVE VOLUMES      L**3       RATES FOR THIS TIME STEP      L**3/T
     ------------------                 ------------------------

           IN:                                      IN:
           ---                                      ---
             STORAGE     =   120786160.0000               STORAGE     =           0.9689
       CONSTANT HEAD     =           0.0000         CONSTANT HEAD     =           0.0000
               WELLS     =           0.0000                 WELLS     =           0.0000
     HEAD DEP BOUNDS     =     6520300.5000       HEAD DEP BOUNDS     =           0.2073
      STREAM LEAKAGE     =  1248569600.0000        STREAM LEAKAGE     =          40.1933
        UZF RECHARGE     =   401293664.0000          UZF RECHARGE     =          11.9225
               GW ET     =           0.0000                 GW ET     =           0.0000
     SURFACE LEAKAGE     =           0.0000       SURFACE LEAKAGE     =           0.0000

                TOTAL IN =  1777169792.0000                  TOTAL IN =          53.2920

          OUT:                                     OUT:
          ----                                     ----
             STORAGE     =   506451296.0000               STORAGE     =          24.0905
       CONSTANT HEAD     =           0.0000         CONSTANT HEAD     =           0.0000
               WELLS     =   394199936.0000                 WELLS     =           0.0000
     HEAD DEP BOUNDS     =     8921313.0000       HEAD DEP BOUNDS     =           0.2821
      STREAM LEAKAGE     =   250421904.0000        STREAM LEAKAGE     =           7.3693
        UZF RECHARGE     =           0.0000          UZF RECHARGE     =           0.0000
               GW ET     =   617163584.0000                 GW ET     =          21.5500
     SURFACE LEAKAGE     =           0.0000       SURFACE LEAKAGE     =           0.0000

               TOTAL OUT =  1777158144.0000                 TOTAL OUT =          53.2918

                IN - OUT =       11648.0000                  IN - OUT =       1.8311E-04

     PERCENT DISCREPANCY =           0.00         PERCENT DISCREPANCY =           0.00






         TIME SUMMARY AT END OF TIME STEP   15 IN STRESS PERIOD   12
                    SECONDS     MINUTES      HOURS       DAYS        YEARS
                    -----------------------------------------------------------
   TIME STEP LENGTH 3.14103E+05  5235.0      87.251      3.6354     9.95332E-03
 STRESS PERIOD TIME 2.62800E+06  43800.      730.00      30.417     8.32763E-02
         TOTAL TIME 3.15360E+07 5.25600E+05  8760.0      365.00     0.99932    
1


 Run end date and time (yyyy/mm/dd hh:mm:ss): 2021/11/04 11:31:54
 Elapsed run time: 2.200 Seconds

